
 + + + + + + + + + + + + + + + + + + + + + + + + + + + + + + + + + + + + + + + +
 + + + + + + + + + + + + + + + + + + + + + + + + + + + + + + + + + + + + + + + +
 + +                                                                         + +
 + +                      ASPEN PLUS CALCULATION HISTORY                     + +
 + +                                                                         + +
 + + + + + + + + + + + + + + + + + + + + + + + + + + + + + + + + + + + + + + + +
 + + + + + + + + + + + + + + + + + + + + + + + + + + + + + + + + + + + + + + + +

 ASPEN PLUS IS A TRADEMARK OF           HOTLINE:
 ASPEN TECHNOLOGY, INC.                 U.S.A. 888/996-7100
 781/221-6400                           EUROPE (44) 1189-226555

 PLATFORM: WIN-X64                                       DECEMBER 18, 2025   
 VERSION: 40.0   Build 359                               THURSDAY    
 INSTALLATION:                                           12:59:48 A.M.       

 THIS COPY OF ASPEN PLUS LICENSED TO QUEEN MARY UNIVERSITY OF        


      ASPEN PLUS (R) IS A PROPRIETARY PRODUCT OF ASPEN TECHNOLOGY, INC.
      (ASPENTECH), AND MAY BE USED ONLY UNDER AGREEMENT WITH ASPENTECH.
      RESTRICTED RIGHTS LEGEND:  USE, REPRODUCTION, OR DISCLOSURE BY THE
      U.S. GOVERNMENT IS SUBJECT TO RESTRICTIONS SET FORTH IN 
      (i) FAR 52.227-14, Alt. III, (ii) FAR 52.227-19, (iii) DFARS 
      252.227-7013(c)(1)(ii), or (iv) THE ACCOMPANYING LICENSE AGREEMENT,
      AS APPLICABLE. FOR PURPOSES OF THE FAR, THIS SOFTWARE SHALL BE DEEMED
      TO BE "UNPUBLISHED" AND LICENSED WITH DISCLOSURE PROHIBITIONS.
      CONTRACTOR/SUBCONTRACTOR: ASPEN TECHNOLOGY, INC. 20 CROSBY DRIVE,
      BEDFORD, MA 01730.
 *** INPUT SUMMARY ***

 >>CURRENT RUN

   ORIGINAL RUN                           DECEMBER 18, 2025   
   12:59:48 A.M.                          THURSDAY    
   INPUT FILE: _2124ilh.inm
   RUN ID : _2124ilh
          1    ;
          2    ;Input file created by Aspen Plus Rel. 40.0 at 00:59:46 Thu Dec 18, 2025
          3    ;Directory G:\Documents\Y3 Project\Repo\ASPEN8  Runid Y3PROJECT
          4    ;
          5
          6
          7    DYNAMICS
          8        DYNAMICS RESULTS=ON
          9
         10    IN-UNITS MET VOLUME-FLOW='cum/hr' ENTHALPY-FLO='Gcal/hr'  &
         11            HEAT-TRANS-C='kcal/hr-sqm-K' PRESSURE=bar TEMPERATURE=C  &
         12            VOLUME=cum DELTA-T=C HEAD=meter MOLE-DENSITY='kmol/cum'  &
         13            MASS-DENSITY='kg/cum' MOLE-ENTHALP='kcal/mol'  &
         14            MASS-ENTHALP='kcal/kg' HEAT=Gcal MOLE-CONC='mol/l'  &
         15            PDROP=bar SHORT-LENGTH=mm
         16
         17    DEF-STREAMS MIXNCPSD ALL
         18
         19    MODEL-OPTION
         20
         21    DESCRIPTION "
         22        Chemical Simulation with English Units :
         23        F, psi, lb/hr, lbmol/hr, Btu/hr, cuft/hr.
         24
         25        Property Method: NRTL
         26
         27        Flow basis for input: Mole
         28
         29        Stream report composition: Mole flow
         30        "
         31
         32    DATABANKS 'APV140 PURE40' / 'APV140 AQUEOUS' / 'APV140 SOLIDS' &
         33             / 'APV140 INORGANIC' / 'APESV140 AP-EOS' /  &
         34            'NISTV140 NIST-TRC' / NOASPENPCD
         35
         36    PROP-SOURCES 'APV140 PURE40' / 'APV140 AQUEOUS' /  &
         37            'APV140 SOLIDS' / 'APV140 INORGANIC' / 'APESV140 AP-EOS' &
         38             / 'NISTV140 NIST-TRC'
         39
         40    COMPONENTS
         41        WATER H2O /
         42        N2 N2 /
         43        O2 O2 /
         44        CHX C22H30CL2N10 /
         45        CO CO /
         46        CO2 CO2 /
         47        CH4 CH4 /
         48        H2 H2 /
         49        C2H4 C2H4 /
         50        C2H6 C2H6 /
         51        ACETICAC C2H4O2-1 /
         52        PHENOL C6H6O /
         53        GUAIACOL C7H8O2-E1 /
         54        MULBERRY /
         55        CHAR /
         56        ASH /
         57        ACETOL C3H6O2-D1 /
         58        C C /
         59        SO2 O2S /
         60        HCL HCL /
         61        DRYMUL /
         62        S S
         63
         64    SOLVE
         65        RUN-MODE MODE=SIM
         66
         67    FLOWSHEET
         68        BLOCK PYROLYZE IN=HOTPYFED OUT=HOTPROD
         69        BLOCK CHARSEP IN=HOTPROD OUT=CHAR VAPORS
         70        BLOCK CONDENSE IN=VAPORS OUT=GAS OIL
         71        BLOCK FBSEP IN=WASTEH2O CHAR OUT=CLEANH2O WASTECHA
         72        BLOCK TORSEP IN=WETWOOD OUT=STEAM DRYWOOD
         73        BLOCK BURNER1 IN=GAS AIR1 OUT=EXHAUST1
         74        BLOCK TORHEAT IN=EXHAUST1 WOOD OUT=COLDFLU1 TORHOT
         75        BLOCK PYHEAT IN=EXHAUST2 DRYWOOD OUT=COLDFLU2 HOTPYFED
         76        BLOCK TORDRYER IN=TORHOT OUT=WETWOOD
         77        BLOCK DECOMP IN=SPNTCHAR OUT=DECCHAR
         78        BLOCK CHXSEP IN=WASTECHA OUT=SPNTCHAR CHXRECO
         79        BLOCK BURNER3 IN=AIR2 DECCHAR CHXRECO OUT=EXHAUST2
         80
         81    PROPERTIES NRTL
         82        PROPERTIES NRTL-RK / PENG-ROB / UNIQUAC
         83
         84    NC-COMPS MULBERRY PROXANAL ULTANAL SULFANAL
         85
         86    NC-PROPS MULBERRY ENTHALPY HCOALGEN / DENSITY DCOALIGT
         87
         88    NC-COMPS CHAR PROXANAL ULTANAL SULFANAL
         89
         90    NC-PROPS CHAR ENTHALPY HCOALGEN / DENSITY DCOALIGT
         91
         92    NC-COMPS ASH PROXANAL ULTANAL SULFANAL
         93
         94    NC-PROPS ASH ENTHALPY HCOALGEN / DENSITY DCOALIGT
         95
         96    NC-COMPS DRYMUL PROXANAL ULTANAL SULFANAL
         97
         98    NC-PROPS DRYMUL ENTHALPY HCOALGEN / DENSITY DCOALIGT
         99
        100    PROP-DATA DHFORM
        101        IN-UNITS MET VOLUME-FLOW='cum/hr' ENTHALPY-FLO='Gcal/hr'  &
        102            HEAT-TRANS-C='kcal/hr-sqm-K' PRESSURE=bar TEMPERATURE=C  &
        103            VOLUME=cum DELTA-T=C HEAD=meter MOLE-DENSITY='kmol/cum'  &
        104            MASS-DENSITY='kg/cum' MOLE-ENTHALP='kJ/kmol'  &
        105            MASS-ENTHALP='kcal/kg' HEAT=Gcal MOLE-CONC='mol/l'  &
        106            PDROP=bar SHORT-LENGTH=mm
        107        PROP-LIST DHFORM / DGFORM
        108        PVAL CHX 100000 / 200000
        109
        110    PROP-DATA PLXANT-1
        111        IN-UNITS MET VOLUME-FLOW='cum/hr' ENTHALPY-FLO='Gcal/hr'  &
        112            HEAT-TRANS-C='kcal/hr-sqm-K' PRESSURE=Pa TEMPERATURE=C  &
        113            VOLUME=cum DELTA-T=C HEAD=meter MOLE-DENSITY='kmol/cum'  &
        114            MASS-DENSITY='kg/cum' MOLE-ENTHALP='kcal/mol'  &
        115            MASS-ENTHALP='kcal/kg' HEAT=Gcal MOLE-CONC='mol/l'  &
        116            PDROP=bar SHORT-LENGTH=mm
        117        PROP-LIST PLXANT
        118        PVAL CHX -1E+20 0.0 0.0 0.0 0.0 0.0 0.0 -273.150000  &
        119            726.850000
        120
        121    PROP-DATA NRTL-1
        122        IN-UNITS MET VOLUME-FLOW='cum/hr' ENTHALPY-FLO='Gcal/hr'  &
        123            HEAT-TRANS-C='kcal/hr-sqm-K' PRESSURE=bar TEMPERATURE=F  &
        124            VOLUME=cum DELTA-T=C HEAD=meter MOLE-DENSITY='kmol/cum'  &
        125            MASS-DENSITY='kg/cum' MOLE-ENTHALP='kcal/mol'  &
        126            MASS-ENTHALP='kcal/kg' HEAT=Gcal MOLE-CONC='mol/l'  &
        127            PDROP=bar SHORT-LENGTH=mm
        128        PROP-LIST NRTL
        129        BPVAL WATER PHENOL -.5363000000 2542.916880 .3000000000 0.0  &
        130            0.0 0.0 111.9200000 359.6000000
        131        BPVAL PHENOL WATER 2.301500000 -1583.461440 .3000000000 0.0  &
        132            0.0 0.0 111.9200000 359.6000000
        133
        134    PROP-DATA PRKBV-1
        135        IN-UNITS MET VOLUME-FLOW='cum/hr' ENTHALPY-FLO='Gcal/hr'  &
        136            HEAT-TRANS-C='kcal/hr-sqm-K' PRESSURE=bar TEMPERATURE=F  &
        137            VOLUME=cum DELTA-T=C HEAD=meter MOLE-DENSITY='kmol/cum'  &
        138            MASS-DENSITY='kg/cum' MOLE-ENTHALP='kcal/mol'  &
        139            MASS-ENTHALP='kcal/kg' HEAT=Gcal MOLE-CONC='mol/l'  &
        140            PDROP=bar SHORT-LENGTH=mm
        141        PROP-LIST PRKBV
        142        BPVAL WATER CO2 .1200000000 0.0 0.0 -459.6700000  &
        143            1340.330000
        144        BPVAL CO2 WATER .1200000000 0.0 0.0 -459.6700000  &
        145            1340.330000
        146        BPVAL N2 O2 -.0119000000 0.0 0.0 -459.6700000 1340.330000
        147        BPVAL O2 N2 -.0119000000 0.0 0.0 -459.6700000 1340.330000
        148        BPVAL N2 CO .0307000000 0.0 0.0 -459.6700000 1340.330000
        149        BPVAL CO N2 .0307000000 0.0 0.0 -459.6700000 1340.330000
        150        BPVAL N2 CO2 -.0170000000 0.0 0.0 -459.6700000 1340.330000
        151        BPVAL CO2 N2 -.0170000000 0.0 0.0 -459.6700000 1340.330000
        152        BPVAL N2 CH4 .0311000000 0.0 0.0 -459.6700000 1340.330000
        153        BPVAL CH4 N2 .0311000000 0.0 0.0 -459.6700000 1340.330000
        154        BPVAL N2 H2 .1030000000 0.0 0.0 -459.6700000 1340.330000
        155        BPVAL H2 N2 .1030000000 0.0 0.0 -459.6700000 1340.330000
        156        BPVAL N2 C2H4 .0856000000 0.0 0.0 -459.6700000 1340.330000
        157        BPVAL C2H4 N2 .0856000000 0.0 0.0 -459.6700000 1340.330000
        158        BPVAL N2 C2H6 .0515000000 0.0 0.0 -459.6700000 1340.330000
        159        BPVAL C2H6 N2 .0515000000 0.0 0.0 -459.6700000 1340.330000
        160        BPVAL CO CH4 .0300000000 0.0 0.0 -459.6700000 1340.330000
        161        BPVAL CH4 CO .0300000000 0.0 0.0 -459.6700000 1340.330000
        162        BPVAL CO H2 .0919000000 0.0 0.0 -459.6700000 1340.330000
        163        BPVAL H2 CO .0919000000 0.0 0.0 -459.6700000 1340.330000
        164        BPVAL CO C2H6 -.0226000000 0.0 0.0 -459.6700000  &
        165            1340.330000
        166        BPVAL C2H6 CO -.0226000000 0.0 0.0 -459.6700000  &
        167            1340.330000
        168        BPVAL CO2 CH4 .0919000000 0.0 0.0 -459.6700000 1340.330000
        169        BPVAL CH4 CO2 .0919000000 0.0 0.0 -459.6700000 1340.330000
        170        BPVAL CO2 H2 -.1622000000 0.0 0.0 -459.6700000 1340.330000
        171        BPVAL H2 CO2 -.1622000000 0.0 0.0 -459.6700000 1340.330000
        172        BPVAL CO2 C2H4 .0552000000 0.0 0.0 -459.6700000  &
        173            1340.330000
        174        BPVAL C2H4 CO2 .0552000000 0.0 0.0 -459.6700000  &
        175            1340.330000
        176        BPVAL CO2 C2H6 .1322000000 0.0 0.0 -459.6700000  &
        177            1340.330000
        178        BPVAL C2H6 CO2 .1322000000 0.0 0.0 -459.6700000  &
        179            1340.330000
        180        BPVAL CH4 H2 .0156000000 0.0 0.0 -459.6700000 1340.330000
        181        BPVAL H2 CH4 .0156000000 0.0 0.0 -459.6700000 1340.330000
        182        BPVAL CH4 C2H4 .0215000000 0.0 0.0 -459.6700000  &
        183            1340.330000
        184        BPVAL C2H4 CH4 .0215000000 0.0 0.0 -459.6700000  &
        185            1340.330000
        186        BPVAL CH4 C2H6 -2.6000000E-3 0.0 0.0 -459.6700000  &
        187            1340.330000
        188        BPVAL C2H6 CH4 -2.6000000E-3 0.0 0.0 -459.6700000  &
        189            1340.330000
        190        BPVAL H2 C2H4 7.40000000E-3 0.0 0.0 -459.6700000  &
        191            1340.330000
        192        BPVAL C2H4 H2 7.40000000E-3 0.0 0.0 -459.6700000  &
        193            1340.330000
        194        BPVAL H2 C2H6 -.0667000000 0.0 0.0 -459.6700000  &
        195            1340.330000
        196        BPVAL C2H6 H2 -.0667000000 0.0 0.0 -459.6700000  &
        197            1340.330000
        198        BPVAL C2H4 C2H6 8.90000000E-3 0.0 0.0 -459.6700000  &
        199            1340.330000
        200        BPVAL C2H6 C2H4 8.90000000E-3 0.0 0.0 -459.6700000  &
        201            1340.330000
        202        BPVAL N2 SO2 .0800000000 0.0 0.0 -459.6700000 1340.330000
        203        BPVAL SO2 N2 .0800000000 0.0 0.0 -459.6700000 1340.330000
        204        BPVAL CH4 SO2 .1356000000 0.0 0.0 -459.6700000 1340.330000
        205        BPVAL SO2 CH4 .1356000000 0.0 0.0 -459.6700000 1340.330000
        206
        207    PROP-DATA UNIQ-1
        208        IN-UNITS MET VOLUME-FLOW='cum/hr' ENTHALPY-FLO='Gcal/hr'  &
        209            HEAT-TRANS-C='kcal/hr-sqm-K' PRESSURE=bar TEMPERATURE=F  &
        210            VOLUME=cum DELTA-T=C HEAD=meter MOLE-DENSITY='kmol/cum'  &
        211            MASS-DENSITY='kg/cum' MOLE-ENTHALP='kcal/mol'  &
        212            MASS-ENTHALP='kcal/kg' HEAT=Gcal MOLE-CONC='mol/l'  &
        213            PDROP=bar SHORT-LENGTH=mm
        214        PROP-LIST UNIQ
        215        BPVAL WATER ACETICAC 0.0 -132.1992000 0.0 0.0 68.00000000  &
        216            104.0000000 0.0
        217        BPVAL ACETICAC WATER 0.0 395.3880000 0.0 0.0 68.00000000  &
        218            104.0000000 0.0
        219        BPVAL WATER PHENOL .9562000000 -422.3860200 0.0 0.0  &
        220            111.9200000 359.6000000 0.0
        221        BPVAL PHENOL WATER -3.463400000 1774.892340 0.0 0.0  &
        222            111.9200000 359.6000000 0.0
        223
        224    DEF-SUBS-ATTR PSD PSD
        225        IN-UNITS ENG SHORT-LENGTH=in
        226        INTERVALS 10
        227        SIZE-LIMITS 0.0 <mm> / 2. <mm> / 4. <mm> / 6. <mm> /  &
        228            8. <mm> / 10. <mm> / 12. <mm> / 14. <mm> / 16. <mm> /  &
        229            18. <mm> / 20. <mm>
        230
        231    STREAM AIR1
        232        SUBSTREAM MIXED TEMP=25. PRES=1. MASS-FLOW=100.
        233        MOLE-FRAC N2 0.781 / O2 0.21 / CO2 0.008
        234
        235    STREAM AIR2
        236        SUBSTREAM MIXED TEMP=25. PRES=1. MASS-FLOW=10.
        237        MOLE-FRAC N2 0.781 / O2 0.21 / CO2 0.008
        238
        239    STREAM COLDFLU1
        240        SUBSTREAM MIXED TEMP=200. PRES=1. MOLE-FLOW=0.555
        241        MOLE-FLOW WATER 1.
        242
        243    STREAM EXHAUST1
        244        SUBSTREAM MIXED TEMP=300. PRES=1.
        245
        246    STREAM EXHAUST2
        247        SUBSTREAM MIXED TEMP=500. PRES=1.
        248
        249    STREAM WASTEH2O
        250        SUBSTREAM MIXED TEMP=25.00000000 PRES=1.000000000  &
        251            MASS-FLOW=13293.
        252        MASS-FRAC WATER 0.9999 / CHX 0.0001
        253
        254    STREAM WOOD
        255        SUBSTREAM MIXED TEMP=25.00000000 PRES=1.000000000  &
        256            FREE-WATER=NO NPHASE=2 PHASE=V
        257        SUBSTREAM NCPSD TEMP=25.00000000 PRES=1.000000000  &
        258            MASS-FLOW=43.044
        259        MASS-FRAC MULBERRY 1.
        260        COMP-ATTR MULBERRY PROXANAL ( 20. 17. 81.5 1.5 )
        261        COMP-ATTR MULBERRY ULTANAL ( 1.5 48. 6. 0.2 0. 0.02  &
        262            44.28 )
        263        COMP-ATTR MULBERRY SULFANAL ( 0. 0. 0.02 )
        264        SUBS-ATTR PSD ( * * * * * 1. * * * * )
        265
        266    BLOCK CHARSEP SEP
        267        PARAM
        268        FRAC STREAM=CHAR SUBSTREAM=NCPSD COMPS=CHAR FRACS=1.
        269        FLASH-SPECS CHAR TEMP=350.0000000 PRES=1.000000000 NPHASE=1  &
        270            FREE-WATER=NO PHASE=S
        271        FLASH-SPECS VAPORS TEMP=350.0000000 PRES=1.000000000
        272
        273    BLOCK CHXSEP SEP
        274        PARAM
        275        FRAC STREAM=SPNTCHAR SUBSTREAM=NCPSD COMPS=CHAR FRACS=1.
        276
        277    BLOCK FBSEP SEP
        278        PARAM
        279        FRAC STREAM=CLEANH2O SUBSTREAM=MIXED COMPS=WATER CHX  &
        280            FRACS=0.99999 0.
        281
        282    BLOCK CONDENSE FLASH2
        283        PARAM TEMP=25.00000000 PRES=1.000000000
        284
        285    BLOCK TORSEP FLASH2
        286        PARAM TEMP=250. PRES=1.
        287
        288    BLOCK PYHEAT HEATX
        289        PARAM T-COLD=500.
        290        FEEDS HOT=EXHAUST2 COLD=DRYWOOD
        291        OUTLETS-HOT COLDFLU2
        292        OUTLETS-COLD HOTPYFED
        293        HOT-SIDE DPPARMOPT=NO
        294        COLD-SIDE DPPARMOPT=NO
        295        TQ-PARAM CURVE=NO
        296
        297    BLOCK TORHEAT HEATX
        298        PARAM T-COLD=250. CALC-TYPE=DESIGN U-OPTION=PHASE  &
        299            F-OPTION=CONSTANT CALC-METHOD=SHORTCUT
        300        FEEDS HOT=EXHAUST1 COLD=WOOD
        301        OUTLETS-HOT COLDFLU1
        302        OUTLETS-COLD TORHOT
        303        HOT-SIDE DP-OPTION=CONSTANT DPPARMOPT=NO
        304        COLD-SIDE DP-OPTION=CONSTANT DPPARMOPT=NO
        305        TQ-PARAM CURVE=YES
        306
        307    BLOCK BURNER1 RSTOIC
        308        PARAM PRES=10. DUTY=0. COMBUSTION=YES
        309        STOIC 1 MIXED C2H4 -1. / O2 -3. / CO2 2. / WATER 2.
        310        STOIC 2 MIXED C2H6 -2. / O2 -7. / CO2 4. / WATER 6.
        311        CONV 1 MIXED C2H4 1.
        312        CONV 2 MIXED C2H6 1.
        313
        314    BLOCK BURNER3 RSTOIC
        315        PARAM PRES=1. DUTY=0. COMBUSTION=YES
        316        STOIC 1 MIXED C -1. / O2 -1. / CO2 1.
        317        STOIC 2 MIXED C -2. / O2 -1. / CO 2.
        318        STOIC 3 MIXED H2 -2. / O2 -1. / WATER 2.
        319        STOIC 4 MIXED S -1. / O2 -1. / SO2 1.
        320        STOIC 5 MIXED CHX -1. / O2 -29. / CO2 22. / WATER  &
        321            14. / HCL 2. / N2 5.
        322        CONV 1 MIXED C 0.4
        323        CONV 2 MIXED C 0.6
        324        CONV 3 MIXED H2 1.
        325        CONV 4 MIXED S 1.
        326        CONV 5 MIXED CHX 1.
        327
        328    BLOCK DECOMP RYIELD
        329        PARAM TEMP=25. PRES=1.
        330        MASS-YIELD MIXED C 0.78 / H2 0.025 / O2 0.109 / N2  &
        331            0.005 / WATER 0.01 / S 0.0002 / NCPSD ASH 0.0708
        332        COMP-ATTR NCPSD ASH PROXANAL ( 0. 0. 0. 100. )
        333        COMP-ATTR NCPSD ASH ULTANAL ( 100. 0. 0. 0. 0. 0. 0.  &
        334            )
        335        COMP-ATTR NCPSD ASH SULFANAL ( 0. 0. 0. )
        336
        337    BLOCK PYROLYZE RYIELD
        338        PARAM TEMP=350.0000000 PRES=1.000000000 OPT-PSD=SPEC
        339        MASS-YIELD MIXED WATER 0.01 / ACETICAC 0.05 / PHENOL  &
        340            0.05 / GUAIACOL 0.1 / ACETOL 0.21 / CO2 0.09 / CO  &
        341            0.08 / CH4 0.04 / H2 0.03 / N2 0.01 / NCPSD CHAR  &
        342            0.33
        343        COMP-ATTR NCPSD CHAR PROXANAL ( 2. 75. 15. 8. )
        344        COMP-ATTR NCPSD CHAR ULTANAL ( 8. 78. 2.5 0.5 0. 0.02  &
        345            10.98 )
        346        COMP-ATTR NCPSD CHAR SULFANAL ( 0. 0. 2. )
        347        OVALL-ATTR PSDID=PSD VALUE=* * * * * 1. * * * *
        348
        349    BLOCK TORDRYER RYIELD
        350        PARAM TEMP=250. PRES=1.
        351        MASS-YIELD NCPSD DRYMUL 0.8008 / MIXED WATER 0.1992
        352        COMP-ATTR NCPSD DRYMUL PROXANAL ( 0.1 17. 81.5 1.5 )
        353        COMP-ATTR NCPSD DRYMUL ULTANAL ( 1.5 48. 6. 0.2 0.  &
        354            0.02 44.28 )
        355        COMP-ATTR NCPSD DRYMUL SULFANAL ( 0. 0. 0.02 )
        356
        357    EO-CONV-OPTI
        358
        359    STREAM-REPOR MOLEFLOW
        360
        361    DISABLE
        362        STREAM AIR1
        363    ;
        364    ;
        365    ;
        366    ;
        367    ;
 *** INPUT TRANSLATOR MESSAGES ***

  *** THIS RUN USES THE PROPERTIES ENTERPRISE DATABASE ***
      SQLLOCALDB.APESV140 : (DATAVERSION - 40.0.0.13)                         
      SQLLOCALDB.APV140 : (DATAVERSION - 40.0.0.13)                           
      SQLLOCALDB.FACTV140 : (DATAVERSION - 40.0.0.12)                         
      SQLLOCALDB.NISTV140 : (DATAVERSION - 40.0.0.12)                         

  *   WARNING IN THE "STREAM" PARAGRAPH WHICH BEGINS ON LINE 239                
      STREAM NAME: COLDFLU1                                    (STSTRM.29)      
      COMPONENT MOLE FLOWS OF SUBSTREAM: "MIXED"                                
      ARE NORMALIZED TO THE TOTAL MOLE FLOW VALUE.                              


 
 

 PDF updated                                                                      TIME =      1.34

 *** CALCULATION TRACE ***


 *** FLOWSHEET ANALYSIS MESSAGES ***

 FLOWSHEET CONNECTIVITY BY STREAMS       

   STREAM     SOURCE     DEST           STREAM     SOURCE     DEST
   WASTEH2O   ----       FBSEP          AIR1       ----       BURNER1 
   WOOD       ----       TORHEAT        AIR2       ----       BURNER3 
   HOTPROD    PYROLYZE   CHARSEP        CHAR       CHARSEP    FBSEP   
   VAPORS     CHARSEP    CONDENSE       GAS        CONDENSE   BURNER1 
   OIL        CONDENSE   ----           CLEANH2O   FBSEP      ----    
   WASTECHA   FBSEP      CHXSEP         STEAM      TORSEP     ----    
   DRYWOOD    TORSEP     PYHEAT         EXHAUST1   BURNER1    TORHEAT 
   COLDFLU1   TORHEAT    ----           TORHOT     TORHEAT    TORDRYER
   COLDFLU2   PYHEAT     ----           HOTPYFED   PYHEAT     PYROLYZE
   WETWOOD    TORDRYER   TORSEP         DECCHAR    DECOMP     BURNER3 
   SPNTCHAR   CHXSEP     DECOMP         CHXRECO    CHXSEP     BURNER3 
   EXHAUST2   BURNER3    PYHEAT                                       

 FLOWSHEET CONNECTIVITY BY BLOCKS        

   BLOCK        INLETS                         OUTLETS
   PYROLYZE     HOTPYFED                       HOTPROD                     
   CHARSEP      HOTPROD                        CHAR VAPORS                 
   CONDENSE     VAPORS                         GAS OIL                     
   FBSEP        WASTEH2O CHAR                  CLEANH2O WASTECHA           
   TORSEP       WETWOOD                        STEAM DRYWOOD               
   BURNER1      GAS AIR1                       EXHAUST1                    
   TORHEAT      EXHAUST1 WOOD                  COLDFLU1 TORHOT             
   PYHEAT       EXHAUST2 DRYWOOD               COLDFLU2 HOTPYFED           
   TORDRYER     TORHOT                         WETWOOD                     
   DECOMP       SPNTCHAR                       DECCHAR                     
   CHXSEP       WASTECHA                       SPNTCHAR CHXRECO            
   BURNER3      AIR2 DECCHAR CHXRECO           EXHAUST2                    

      BLOCK $OLVER01 (METHOD: WEGSTEIN) HAS BEEN DEFINED TO CONVERGE
               STREAMS: EXHAUST1  EXHAUST2

      COMPUTATION ORDER FOR THE FLOWSHEET IS:
      $OLVER01 TORHEAT TORDRYER TORSEP PYHEAT PYROLYZE CHARSEP FBSEP 
      |  CHXSEP DECOMP BURNER3 CONDENSE BURNER1 
      (RETURN $OLVER01) 

Calculations begin                                                              time      0.40


 SIMULATION CALCULATIONS BEGIN                                                    TIME =      0.40

      CONVERGENCE BLOCK $OLVER01  METHOD: WEGSTEIN                                TIME =      0.40
      ITER   0 For Tear Streams: EXHAUST1  EXHAUST2

      ENTHALPY CALCULATION FOR INLET STREAM WOOD OF BLOCK TORHEAT                 TIME =      0.40
      SUBSTREAM NCPSD   
      KODE =    2 T =  298.150     P =  100000.     Q =  0.00000     HNCS =-7.756532E+06

      ENTHALPY CALCULATION FOR OUTLET STREAM COLDFLU1 OF BLOCK TORHEAT            TIME =      0.40
      SUBSTREAM MIXED   
      KODE = 2  NTRIAL =   1  T = 473.1500  P =  100000.      V =  1.00000      Q =  0.00000    

      UOS BLOCK TORHEAT  MODEL: HEATX                                             TIME =      0.40

  *   WARNING WHILE EXECUTING UNIT OPERATIONS BLOCK: "TORHEAT" (MODEL: "HEATX") 
                                                               (UHE02I.1)       
      AT LEAST ONE FEED HAS ZERO FLOW                                           
      BLOCK BYPASSED                                                            

      UOS BLOCK TORDRYER MODEL: RYIELD                                            TIME =      0.40
      KODE = 2  NTRIAL =   1  T =  523.150      P =  100000.      V =  1.00000      Q =  11236.5    

      UOS BLOCK TORSEP   MODEL: FLASH2                                            TIME =      0.40
      KODE = 2  NTRIAL =   1  T =  523.150      P =  100000.      V =  1.00000      Q =  0.00000    

      UOS BLOCK PYHEAT   MODEL: HEATX                                             TIME =      0.40

  *   WARNING WHILE EXECUTING UNIT OPERATIONS BLOCK: "PYHEAT" (MODEL: "HEATX")  
                                                               (UHE02I.1)       
      AT LEAST ONE FEED HAS ZERO FLOW                                           
      BLOCK BYPASSED                                                            

      UOS BLOCK PYROLYZE MODEL: RYIELD                                            TIME =      0.40

  *   WARNING WHILE EXECUTING UNIT OPERATIONS BLOCK: "PYROLYZE" (MODEL:         
      "RYIELD")                                                (BALATM.1)       
      THE FOLLOWING ELEMENTS ARE NOT IN ATOM BALANCE:                           
      H     N     C     S                                                       
      KODE = 2  NTRIAL =   3  T =  623.150      P =  100000.      V =  1.00000      Q =  25199.2    

      UOS BLOCK CHARSEP  MODEL: SEP                                               TIME =      0.40
      ---FLASH OUTLET STREAM CHAR    :
      KODE =    2 T =  623.150     P =  100000.     Q =  0.00000     HNCS = -25650.0    
      ---FLASH OUTLET STREAM VAPORS  :
      KODE = 2  NTRIAL =   3  T =  623.150      P =  100000.      V =  1.00000      Q =  0.00000    

      ENTHALPY CALCULATION FOR INLET STREAM WASTEH2O OF BLOCK FBSEP               TIME =      0.40
      SUBSTREAM MIXED   
      KODE = 2  NTRIAL =   3  T = 298.1500  P =  100000.      V =  0.00000      Q =  0.00000    

      UOS BLOCK FBSEP    MODEL: SEP                                               TIME =      0.40
      ---FLASH FEED STREAM TO CALCULATE TEMPERATURE:
      NO. TEMP ITER =    5     TEMP =  298.247    
      KODE = 1  NTRIAL =   2  T =  298.247      P =  100000.      V =  0.00000      Q =  0.00000    
      ---FLASH OUTLET STREAM CLEANH2O:
      KODE = 2  NTRIAL =   1  T =  298.247      P =  100000.      V =  0.00000      Q =  0.00000    
      ---FLASH OUTLET STREAM WASTECHA:
      KODE = 2  NTRIAL =   3  T =  298.247      P =  100000.      V =  0.00000      Q =  0.00000    

      UOS BLOCK CHXSEP   MODEL: SEP                                               TIME =      0.40
      ---FLASH OUTLET STREAM SPNTCHAR:
      KODE =    2 T =  298.247     P =  100000.     Q =  0.00000     HNCS = -491908.    
      ---FLASH OUTLET STREAM CHXRECO :
      KODE = 2  NTRIAL =   3  T =  298.247      P =  100000.      V =  0.00000      Q =  0.00000    

      UOS BLOCK DECOMP   MODEL: RYIELD                                            TIME =      0.40

  *   WARNING WHILE EXECUTING UNIT OPERATIONS BLOCK: "DECOMP" (MODEL: "RYIELD") 
                                                               (BALATM.1)       
      THE FOLLOWING ELEMENTS ARE NOT IN ATOM BALANCE:                           
      H     N     C     S                                                       
      KODE = 2  NTRIAL =   3  T =  298.150      P =  100000.      V = 0.195964      Q =  130766.    

      ENTHALPY CALCULATION FOR INLET STREAM AIR2 OF BLOCK BURNER3                 TIME =      0.40
      SUBSTREAM MIXED   
      KODE = 2  NTRIAL =   1  T = 298.1500  P =  100000.      V =  1.00000      Q =  0.00000    

      UOS BLOCK BURNER3  MODEL: RSTOIC                                            TIME =      0.40

  *   WARNING WHILE EXECUTING UNIT OPERATIONS BLOCK: "BURNER3" (MODEL:          
      "RSTOIC")                                                (URE07.3)        
      COMPONENT "O2" IN SUBSTREAM "MIXED" HAS ZERO                              
      FLOWRATE IN THE OUTLET STREAM. FRACTIONAL CONVERSION                      
      HAS BEEN MODIFIED BY A FACTOR OF "0.1676087"                              
      KODE = 1  NTRIAL =   1  T =  2994.15      P =  100000.      V = 0.622795      Q =  0.00000    

      UOS BLOCK CONDENSE MODEL: FLASH2                                            TIME =      0.40
      KODE = 2  NTRIAL =   2  T =  298.150      P =  100000.      V = 0.809325      Q = -6788.95    

      ENTHALPY CALCULATION FOR INLET STREAM AIR1 OF BLOCK BURNER1                 TIME =      0.40
      SUBSTREAM MIXED   
      KODE = 2  NTRIAL =   1  T = 298.1500  P =  100000.      V =  1.00000      Q =  0.00000    

      UOS BLOCK BURNER1  MODEL: RSTOIC                                            TIME =      0.40
      NO. TEMP ITER =    6     TEMP =  1888.48    
      KODE = 1  NTRIAL =   2  T =  1888.48      P = 1.000000E+06  V =  1.00000      Q =  0.00000    

      CONVERGENCE BLOCK $OLVER01  METHOD: WEGSTEIN                                TIME =      0.40
      ITER   1 For Tear Streams: EXHAUST1  EXHAUST2

  *   WARNING WHILE EXECUTING CONVERGENCE BLOCK: "$OLVER01" (MODEL: "WEGSTEIN") 
                                                               (WEGSTN2.1)      
      THE VALUES FOR SOME VARIABLES ARE MISSING.                                
      THIS MAY BE CAUSED BY A ZERO-FLOW STREAM.                                 
      THE PREVIOUS VALUES OF THE VARIABLES WILL BE USED.                        
      THE MISSING VARIABLES ARE:                                                
      "26"                                                                      

      --FLASH TEAR STREAM EXHAUST1
      NO. TEMP ITER =    5     TEMP =  1888.48    
      KODE = 1  NTRIAL =   2  T =  1888.48      P = 1.000000E+06  V =  1.00000      Q =  0.00000    

      --FLASH TEAR STREAM EXHAUST2
      KODE = 1  NTRIAL =   6  T =  2994.16      P =  100000.      V = 0.622794      Q =  0.00000    

  LOOP $OLVER01 ITER    1:  19 VARS NOT CONVERGED, MAX ERR/TOL     0.10000E+07    TIME =      0.40

      UOS BLOCK TORHEAT  MODEL: HEATX                                             TIME =      0.40
      SPECIFICATION: COLD OUTLET TEMP      523.15    
      FLOW TYPE:     COUNTERCURRENT  
      HOT:  TIN= 1888.48  PIN=0.10000E+07   TOUT= 1741.39  POUT=0.10000E+07
      COLD: TIN=  298.15  PIN=0.10000E+06   TOUT=  523.15  POUT=0.10000E+06
                              DUTY= 6441.8    

      UOS BLOCK TORDRYER MODEL: RYIELD                                            TIME =      0.40
      KODE = 2  NTRIAL =   1  T =  523.150      P =  100000.      V =  1.00000      Q =  4794.73    

      UOS BLOCK TORSEP   MODEL: FLASH2                                            TIME =      0.40
      KODE = 2  NTRIAL =   1  T =  523.150      P =  100000.      V =  1.00000      Q =  0.00000    

      UOS BLOCK PYHEAT   MODEL: HEATX                                             TIME =      0.40
      SPECIFICATION: COLD OUTLET TEMP      773.15    
      FLOW TYPE:     COUNTERCURRENT  
      HOT:  TIN= 2994.15  PIN=0.10000E+06   TOUT= 2709.21  POUT=0.10000E+06
      COLD: TIN=  523.15  PIN=0.10000E+06   TOUT=  773.15  POUT=0.10000E+06
                              DUTY= 6593.9    

      UOS BLOCK PYROLYZE MODEL: RYIELD                                            TIME =      0.41

  *   WARNING WHILE EXECUTING UNIT OPERATIONS BLOCK: "PYROLYZE" (MODEL:         
      "RYIELD")                                                (BALATM.1)       
      THE FOLLOWING ELEMENTS ARE NOT IN ATOM BALANCE:                           
      H     N     C     S                                                       
      KODE = 2  NTRIAL =   3  T =  623.150      P =  100000.      V =  1.00000      Q =  18605.3    

      UOS BLOCK CHARSEP  MODEL: SEP                                               TIME =      0.41
      ---FLASH OUTLET STREAM CHAR    :
      KODE =    2 T =  623.150     P =  100000.     Q =  0.00000     HNCS = -25650.0    
      ---FLASH OUTLET STREAM VAPORS  :
      KODE = 2  NTRIAL =   3  T =  623.150      P =  100000.      V =  1.00000      Q =  0.00000    

      UOS BLOCK FBSEP    MODEL: SEP                                               TIME =      0.41
      ---FLASH FEED STREAM TO CALCULATE TEMPERATURE:
      NO. TEMP ITER =    5     TEMP =  298.247    
      KODE = 1  NTRIAL =   2  T =  298.247      P =  100000.      V =  0.00000      Q =  0.00000    
      ---FLASH OUTLET STREAM CLEANH2O:
      KODE = 2  NTRIAL =   1  T =  298.247      P =  100000.      V =  0.00000      Q =  0.00000    
      ---FLASH OUTLET STREAM WASTECHA:
      KODE = 2  NTRIAL =   3  T =  298.247      P =  100000.      V =  0.00000      Q =  0.00000    

      UOS BLOCK CHXSEP   MODEL: SEP                                               TIME =      0.41
      ---FLASH OUTLET STREAM SPNTCHAR:
      KODE =    2 T =  298.247     P =  100000.     Q =  0.00000     HNCS = -491908.    
      ---FLASH OUTLET STREAM CHXRECO :
      KODE = 2  NTRIAL =   3  T =  298.247      P =  100000.      V =  0.00000      Q =  0.00000    

      UOS BLOCK DECOMP   MODEL: RYIELD                                            TIME =      0.41

  *   WARNING WHILE EXECUTING UNIT OPERATIONS BLOCK: "DECOMP" (MODEL: "RYIELD") 
                                                               (BALATM.1)       
      THE FOLLOWING ELEMENTS ARE NOT IN ATOM BALANCE:                           
      H     N     C     S                                                       
      KODE = 2  NTRIAL =   1  T =  298.150      P =  100000.      V = 0.195964      Q =  130766.    

      UOS BLOCK BURNER3  MODEL: RSTOIC                                            TIME =      0.41

  *   WARNING WHILE EXECUTING UNIT OPERATIONS BLOCK: "BURNER3" (MODEL:          
      "RSTOIC")                                                (URE07.3)        
      COMPONENT "O2" IN SUBSTREAM "MIXED" HAS ZERO                              
      FLOWRATE IN THE OUTLET STREAM. FRACTIONAL CONVERSION                      
      HAS BEEN MODIFIED BY A FACTOR OF "0.1676087"                              
      KODE = 1  NTRIAL =   1  T =  2994.15      P =  100000.      V = 0.622795      Q =  0.00000    

      UOS BLOCK CONDENSE MODEL: FLASH2                                            TIME =      0.41
      KODE = 2  NTRIAL =   1  T =  298.150      P =  100000.      V = 0.809325      Q = -6788.95    

      UOS BLOCK BURNER1  MODEL: RSTOIC                                            TIME =      0.41
      NO. TEMP ITER =    6     TEMP =  1888.48    
      KODE = 1  NTRIAL =   2  T =  1888.48      P = 1.000000E+06  V =  1.00000      Q =  0.00000    

      CONVERGENCE BLOCK $OLVER01  METHOD: WEGSTEIN                                TIME =      0.41
      ITER   2 For Tear Streams: EXHAUST1  EXHAUST2

  LOOP $OLVER01 ITER    2:     *** CONVERGED *** , MAX ERR/TOL    -0.26817E-04    TIME =      0.41

      GENERATING RESULTS FOR UOS BLOCK TORHEAT  MODEL: HEATX                      TIME =      0.41

  *   WARNING WHILE GENERATING RESULTS FOR UNIT OPERATIONS BLOCK: "TORHEAT"     
      (MODEL: "HEATX")                                         (UHE02I.6)       
      TUBESIDE STREAM HAS ZERO FLOW MIXED SUBSTREAM                             
      SPECIFIED U-OPTION NOT ALLOWED - CHANGED TO "CONSTANT"                    
      SPECIFICATION: COLD OUTLET TEMP      523.15    
      FLOW TYPE:     COUNTERCURRENT  
      HOT:  TIN= 1888.48  PIN=0.10000E+07   TOUT= 1741.39  POUT=0.10000E+07
      COLD: TIN=  298.15  PIN=0.10000E+06   TOUT=  523.15  POUT=0.10000E+06
      AREA=0.53981E-02       DUTY= 6441.8           FT=1.00000

      BEGIN HEATX TQ-CURVE CALCULATIONS FOR BLOCK TORHEAT 

      BEGIN COLD-TQCURVE INLET   
      ITERATION (ARCONS) =     5  TEMPERATURE =  523.1500
      T =  523.150    
      ITERATION (ARCONS) =     5  TEMPERATURE =  513.5418
      T =  513.542    
      ITERATION (ARCONS) =     5  TEMPERATURE =  503.8451
      T =  503.845    
      ITERATION (ARCONS) =     5  TEMPERATURE =  494.0572
      T =  494.057    
      ITERATION (ARCONS) =     5  TEMPERATURE =  484.1753
      T =  484.175    
      ITERATION (ARCONS) =     5  TEMPERATURE =  474.1965
      T =  474.196    
      ITERATION (ARCONS) =     5  TEMPERATURE =  464.1176
      T =  464.118    
      ITERATION (ARCONS) =     5  TEMPERATURE =  453.9353
      T =  453.935    
      ITERATION (ARCONS) =     4  TEMPERATURE =  443.6499
      T =  443.650    
      ITERATION (ARCONS) =     4  TEMPERATURE =  433.2493
      T =  433.249    
      ITERATION (ARCONS) =     4  TEMPERATURE =  422.7346
      T =  422.735    
      ITERATION (ARCONS) =     4  TEMPERATURE =  412.1017
      T =  412.102    
      ITERATION (ARCONS) =     4  TEMPERATURE =  401.3462
      T =  401.346    
      ITERATION (ARCONS) =     4  TEMPERATURE =  390.4635
      T =  390.463    
      ITERATION (ARCONS) =     4  TEMPERATURE =  379.4486
      T =  379.449    
      ITERATION (ARCONS) =     4  TEMPERATURE =  368.2961
      T =  368.296    
      ITERATION (ARCONS) =     4  TEMPERATURE =  357.0006
      T =  357.001    
      ITERATION (ARCONS) =     4  TEMPERATURE =  345.5559
      T =  345.556    
      ITERATION (ARCONS) =     4  TEMPERATURE =  333.9557
      T =  333.956    
      ITERATION (ARCONS) =     4  TEMPERATURE =  322.1930
      T =  322.193    
      ITERATION (ARCONS) =     4  TEMPERATURE =  310.2604
      T =  310.260    
      ITERATION (ARCONS) =     4  TEMPERATURE =  298.1500
      T =  298.150    

      BEGIN HOT-TQCURVE  INLET   
      NO. TEMP ITER =    6     TEMP =  1888.48    
      KODE = 1  NTRIAL =   2  T =  1888.48      P = 1.000000E+06  V =  1.00000      Q =  0.00000    
      NO. TEMP ITER =    6     TEMP =  1881.51    
      KODE = 1  NTRIAL =   2  T =  1881.51      P = 1.000000E+06  V =  1.00000      Q =  0.00000    
      NO. TEMP ITER =    6     TEMP =  1874.54    
      KODE = 1  NTRIAL =   2  T =  1874.54      P = 1.000000E+06  V =  1.00000      Q =  0.00000    
      NO. TEMP ITER =    6     TEMP =  1867.57    
      KODE = 1  NTRIAL =   2  T =  1867.57      P = 1.000000E+06  V =  1.00000      Q =  0.00000    
      NO. TEMP ITER =    6     TEMP =  1860.59    
      KODE = 1  NTRIAL =   2  T =  1860.59      P = 1.000000E+06  V =  1.00000      Q =  0.00000    
      NO. TEMP ITER =    6     TEMP =  1853.61    
      KODE = 1  NTRIAL =   2  T =  1853.61      P = 1.000000E+06  V =  1.00000      Q =  0.00000    
      NO. TEMP ITER =    6     TEMP =  1846.62    
      KODE = 1  NTRIAL =   2  T =  1846.62      P = 1.000000E+06  V =  1.00000      Q =  0.00000    
      NO. TEMP ITER =    6     TEMP =  1839.63    
      KODE = 1  NTRIAL =   2  T =  1839.63      P = 1.000000E+06  V =  1.00000      Q =  0.00000    
      NO. TEMP ITER =    6     TEMP =  1832.64    
      KODE = 1  NTRIAL =   2  T =  1832.64      P = 1.000000E+06  V =  1.00000      Q =  0.00000    
      NO. TEMP ITER =    6     TEMP =  1825.64    
      KODE = 1  NTRIAL =   2  T =  1825.64      P = 1.000000E+06  V =  1.00000      Q =  0.00000    
      NO. TEMP ITER =    6     TEMP =  1818.64    
      KODE = 1  NTRIAL =   2  T =  1818.64      P = 1.000000E+06  V =  1.00000      Q =  0.00000    
      NO. TEMP ITER =    6     TEMP =  1811.64    
      KODE = 1  NTRIAL =   2  T =  1811.64      P = 1.000000E+06  V =  1.00000      Q =  0.00000    
      NO. TEMP ITER =    6     TEMP =  1804.63    
      KODE = 1  NTRIAL =   2  T =  1804.63      P = 1.000000E+06  V =  1.00000      Q =  0.00000    
      NO. TEMP ITER =    6     TEMP =  1797.62    
      KODE = 1  NTRIAL =   2  T =  1797.62      P = 1.000000E+06  V =  1.00000      Q =  0.00000    
      NO. TEMP ITER =    6     TEMP =  1790.61    
      KODE = 1  NTRIAL =   2  T =  1790.61      P = 1.000000E+06  V =  1.00000      Q =  0.00000    
      NO. TEMP ITER =    6     TEMP =  1783.59    
      KODE = 1  NTRIAL =   2  T =  1783.59      P = 1.000000E+06  V =  1.00000      Q =  0.00000    
      NO. TEMP ITER =    6     TEMP =  1776.56    
      KODE = 1  NTRIAL =   2  T =  1776.56      P = 1.000000E+06  V =  1.00000      Q =  0.00000    
      NO. TEMP ITER =    6     TEMP =  1769.54    
      KODE = 1  NTRIAL =   2  T =  1769.54      P = 1.000000E+06  V =  1.00000      Q =  0.00000    
      NO. TEMP ITER =    6     TEMP =  1762.51    
      KODE = 1  NTRIAL =   2  T =  1762.51      P = 1.000000E+06  V =  1.00000      Q =  0.00000    
      NO. TEMP ITER =    6     TEMP =  1755.47    
      KODE = 1  NTRIAL =   2  T =  1755.47      P = 1.000000E+06  V =  1.00000      Q =  0.00000    
      NO. TEMP ITER =    6     TEMP =  1748.43    
      KODE = 1  NTRIAL =   2  T =  1748.43      P = 1.000000E+06  V =  1.00000      Q =  0.00000    
      NO. TEMP ITER =    6     TEMP =  1741.39    
      KODE = 1  NTRIAL =   2  T =  1741.39      P = 1.000000E+06  V =  1.00000      Q =  0.00000    

      BEGIN COLD-TQCURVE INLET   

      BEGIN HOT-TQCURVE  INLET   
      END HEATX TQ-CURVE CALCULATIONS FOR BLOCK TORHEAT 

      GENERATING RESULTS FOR UOS BLOCK PYHEAT   MODEL: HEATX                      TIME =      0.41
      SPECIFICATION: COLD OUTLET TEMP      773.15    
      FLOW TYPE:     COUNTERCURRENT  
      HOT:  TIN= 2994.15  PIN=0.10000E+06   TOUT= 2709.21  POUT=0.10000E+06
      COLD: TIN=  523.15  PIN=0.10000E+06   TOUT=  773.15  POUT=0.10000E+06
      AREA=0.35206E-02       DUTY= 6593.9           FT=1.00000

 STREAM SPNTCHAR
        SUBSTREAM MIXED     F =   0.00000000000000      T =  1.000000000000000E+35  P =   100000.000000000    
                            H =  1.000000000000000E+35  V =  1.000000000000000E+35  L =  1.000000000000000E+35
                            ENTROPY =  1.000000000000000E+35  DENSITY =  1.000000000000000E+35  MW =  1.000000000000000E+35
        WATER      0.00000000000000      N2         0.00000000000000      O2         0.00000000000000    
        CHX        0.00000000000000      CO         0.00000000000000      CO2        0.00000000000000    
        CH4        0.00000000000000      H2         0.00000000000000      C2H4       0.00000000000000    
        C2H6       0.00000000000000      ACETICAC   0.00000000000000      PHENOL     0.00000000000000    
        GUAIACOL   0.00000000000000      ACETOL     0.00000000000000      C          0.00000000000000    
        SO2        0.00000000000000      HCL        0.00000000000000      S          0.00000000000000    
        SUBSTREAM NCPSD     F =  3.159716560000007E-03  T =   298.246855184130      P =   100000.000000000    
                            H =  -491908.464953825      V =   0.00000000000000      L =   0.00000000000000    
                            ENTROPY =  1.000000000000000E+35  DENSITY =   1571.71645134441      MW =   1.00000000000000    
                            S =   1.00000000000000    
        MULBERRY   0.00000000000000      CHAR      3.159716560000007E-03  ASH        0.00000000000000    
        DRYMUL     0.00000000000000    
        MULBERRY   PROXANAL    MOISTURE  1.000000000000000E+35  FC        1.000000000000000E+35  VM        1.000000000000000E+35
                               ASH       1.000000000000000E+35
                   ULTANAL     ASH       1.000000000000000E+35  CARBON    1.000000000000000E+35  HYDROGEN  1.000000000000000E+35
                               NITROGEN  1.000000000000000E+35  CHLORINE  1.000000000000000E+35  SULFUR    1.000000000000000E+35
                               OXYGEN    1.000000000000000E+35
                   SULFANAL    PYRITIC   1.000000000000000E+35  SULFATE   1.000000000000000E+35  ORGANIC   1.000000000000000E+35
        CHAR       PROXANAL    MOISTURE   2.00000000000000      FC         75.0000000000000      VM         15.0000000000000    
                               ASH        8.00000000000000    
                   ULTANAL     ASH        8.00000000000000      CARBON     78.0000000000000      HYDROGEN   2.50000000000000    
                               NITROGEN  0.500000000000000      CHLORINE   0.00000000000000      SULFUR    2.000000000000000E-02
                               OXYGEN     10.9800000000000    
                   SULFANAL    PYRITIC    0.00000000000000      SULFATE    0.00000000000000      ORGANIC    2.00000000000000    
        ASH        PROXANAL    MOISTURE  1.000000000000000E+35  FC        1.000000000000000E+35  VM        1.000000000000000E+35
                               ASH       1.000000000000000E+35
                   ULTANAL     ASH       1.000000000000000E+35  CARBON    1.000000000000000E+35  HYDROGEN  1.000000000000000E+35
                               NITROGEN  1.000000000000000E+35  CHLORINE  1.000000000000000E+35  SULFUR    1.000000000000000E+35
                               OXYGEN    1.000000000000000E+35
                   SULFANAL    PYRITIC   1.000000000000000E+35  SULFATE   1.000000000000000E+35  ORGANIC   1.000000000000000E+35
        DRYMUL     PROXANAL    MOISTURE  1.000000000000000E+35  FC        1.000000000000000E+35  VM        1.000000000000000E+35
                               ASH       1.000000000000000E+35
                   ULTANAL     ASH       1.000000000000000E+35  CARBON    1.000000000000000E+35  HYDROGEN  1.000000000000000E+35
                               NITROGEN  1.000000000000000E+35  CHLORINE  1.000000000000000E+35  SULFUR    1.000000000000000E+35
                               OXYGEN    1.000000000000000E+35
                   SULFANAL    PYRITIC   1.000000000000000E+35  SULFATE   1.000000000000000E+35  ORGANIC   1.000000000000000E+35
        SUBS ATTR  PSD         FRAC1      0.00000000000000      FRAC2      0.00000000000000      FRAC3      0.00000000000000    
                               FRAC4      0.00000000000000      FRAC5      0.00000000000000      FRAC6      1.00000000000000    
                               FRAC7      0.00000000000000      FRAC8      0.00000000000000      FRAC9      0.00000000000000    
                               FRAC10     0.00000000000000    

 STREAM CHXRECO 
        SUBSTREAM MIXED     F =  2.779976808865671E-06  T =   298.246855184130      P =   100000.000000000    
                            H =  -192691687.395596      V =   0.00000000000000      L =   1.00000000000000    
                            ENTROPY =   1131.04144488434      DENSITY =   3159.67419565037      MW =   146.106005705974    
        WATER     2.049443999682620E-06  N2         0.00000000000000      O2         0.00000000000000    
        CHX       7.305328091830509E-07  CO         0.00000000000000      CO2        0.00000000000000    
        CH4        0.00000000000000      H2         0.00000000000000      C2H4       0.00000000000000    
        C2H6       0.00000000000000      ACETICAC   0.00000000000000      PHENOL     0.00000000000000    
        GUAIACOL   0.00000000000000      ACETOL     0.00000000000000      C          0.00000000000000    
        SO2        0.00000000000000      HCL        0.00000000000000      S          0.00000000000000    
        SUBSTREAM NCPSD     F =   0.00000000000000      T =  1.000000000000000E+35  P =   100000.000000000    
                            H =  1.000000000000000E+35  V =  1.000000000000000E+35  L =  1.000000000000000E+35
                            ENTROPY =  1.000000000000000E+35  DENSITY =  1.000000000000000E+35  MW =   1.00000000000000    
        MULBERRY   0.00000000000000      CHAR       0.00000000000000      ASH        0.00000000000000    
        DRYMUL     0.00000000000000    
        MULBERRY   PROXANAL    MOISTURE  1.000000000000000E+35  FC        1.000000000000000E+35  VM        1.000000000000000E+35
                               ASH       1.000000000000000E+35
                   ULTANAL     ASH       1.000000000000000E+35  CARBON    1.000000000000000E+35  HYDROGEN  1.000000000000000E+35
                               NITROGEN  1.000000000000000E+35  CHLORINE  1.000000000000000E+35  SULFUR    1.000000000000000E+35
                               OXYGEN    1.000000000000000E+35
                   SULFANAL    PYRITIC   1.000000000000000E+35  SULFATE   1.000000000000000E+35  ORGANIC   1.000000000000000E+35
        CHAR       PROXANAL    MOISTURE  1.000000000000000E+35  FC        1.000000000000000E+35  VM        1.000000000000000E+35
                               ASH       1.000000000000000E+35
                   ULTANAL     ASH       1.000000000000000E+35  CARBON    1.000000000000000E+35  HYDROGEN  1.000000000000000E+35
                               NITROGEN  1.000000000000000E+35  CHLORINE  1.000000000000000E+35  SULFUR    1.000000000000000E+35
                               OXYGEN    1.000000000000000E+35
                   SULFANAL    PYRITIC   1.000000000000000E+35  SULFATE   1.000000000000000E+35  ORGANIC   1.000000000000000E+35
        ASH        PROXANAL    MOISTURE  1.000000000000000E+35  FC        1.000000000000000E+35  VM        1.000000000000000E+35
                               ASH       1.000000000000000E+35
                   ULTANAL     ASH       1.000000000000000E+35  CARBON    1.000000000000000E+35  HYDROGEN  1.000000000000000E+35
                               NITROGEN  1.000000000000000E+35  CHLORINE  1.000000000000000E+35  SULFUR    1.000000000000000E+35
                               OXYGEN    1.000000000000000E+35
                   SULFANAL    PYRITIC   1.000000000000000E+35  SULFATE   1.000000000000000E+35  ORGANIC   1.000000000000000E+35
        DRYMUL     PROXANAL    MOISTURE  1.000000000000000E+35  FC        1.000000000000000E+35  VM        1.000000000000000E+35
                               ASH       1.000000000000000E+35
                   ULTANAL     ASH       1.000000000000000E+35  CARBON    1.000000000000000E+35  HYDROGEN  1.000000000000000E+35
                               NITROGEN  1.000000000000000E+35  CHLORINE  1.000000000000000E+35  SULFUR    1.000000000000000E+35
                               OXYGEN    1.000000000000000E+35
                   SULFANAL    PYRITIC   1.000000000000000E+35  SULFATE   1.000000000000000E+35  ORGANIC   1.000000000000000E+35
        SUBS ATTR  PSD         FRAC1      0.00000000000000      FRAC2      0.00000000000000      FRAC3      0.00000000000000    
                               FRAC4      0.00000000000000      FRAC5      0.00000000000000      FRAC6      1.00000000000000    
                               FRAC7      0.00000000000000      FRAC8      0.00000000000000      FRAC9      0.00000000000000    
                               FRAC10     0.00000000000000    

 STREAM CLEANH2O
        SUBSTREAM MIXED     F =  0.204942350532021      T =   298.246855184130      P =   100000.000000000    
                            H =  -285792974.642385      V =   0.00000000000000      L =   1.00000000000000    
                            ENTROPY =  -9054.27880794347      DENSITY =   993.863567021202      MW =   18.0152800000000    
        WATER     0.204942350532021      N2         0.00000000000000      O2         0.00000000000000    
        CHX        0.00000000000000      CO         0.00000000000000      CO2        0.00000000000000    
        CH4        0.00000000000000      H2         0.00000000000000      C2H4       0.00000000000000    
        C2H6       0.00000000000000      ACETICAC   0.00000000000000      PHENOL     0.00000000000000    
        GUAIACOL   0.00000000000000      ACETOL     0.00000000000000      C          0.00000000000000    
        SO2        0.00000000000000      HCL        0.00000000000000      S          0.00000000000000    
        SUBSTREAM NCPSD     F =   0.00000000000000      T =  1.000000000000000E+35  P =   100000.000000000    
                            H =  1.000000000000000E+35  V =  1.000000000000000E+35  L =  1.000000000000000E+35
                            ENTROPY =  1.000000000000000E+35  DENSITY =  1.000000000000000E+35  MW =   1.00000000000000    
        MULBERRY   0.00000000000000      CHAR       0.00000000000000      ASH        0.00000000000000    
        DRYMUL     0.00000000000000    
        MULBERRY   PROXANAL    MOISTURE  1.000000000000000E+35  FC        1.000000000000000E+35  VM        1.000000000000000E+35
                               ASH       1.000000000000000E+35
                   ULTANAL     ASH       1.000000000000000E+35  CARBON    1.000000000000000E+35  HYDROGEN  1.000000000000000E+35
                               NITROGEN  1.000000000000000E+35  CHLORINE  1.000000000000000E+35  SULFUR    1.000000000000000E+35
                               OXYGEN    1.000000000000000E+35
                   SULFANAL    PYRITIC   1.000000000000000E+35  SULFATE   1.000000000000000E+35  ORGANIC   1.000000000000000E+35
        CHAR       PROXANAL    MOISTURE  1.000000000000000E+35  FC        1.000000000000000E+35  VM        1.000000000000000E+35
                               ASH       1.000000000000000E+35
                   ULTANAL     ASH       1.000000000000000E+35  CARBON    1.000000000000000E+35  HYDROGEN  1.000000000000000E+35
                               NITROGEN  1.000000000000000E+35  CHLORINE  1.000000000000000E+35  SULFUR    1.000000000000000E+35
                               OXYGEN    1.000000000000000E+35
                   SULFANAL    PYRITIC   1.000000000000000E+35  SULFATE   1.000000000000000E+35  ORGANIC   1.000000000000000E+35
        ASH        PROXANAL    MOISTURE  1.000000000000000E+35  FC        1.000000000000000E+35  VM        1.000000000000000E+35
                               ASH       1.000000000000000E+35
                   ULTANAL     ASH       1.000000000000000E+35  CARBON    1.000000000000000E+35  HYDROGEN  1.000000000000000E+35
                               NITROGEN  1.000000000000000E+35  CHLORINE  1.000000000000000E+35  SULFUR    1.000000000000000E+35
                               OXYGEN    1.000000000000000E+35
                   SULFANAL    PYRITIC   1.000000000000000E+35  SULFATE   1.000000000000000E+35  ORGANIC   1.000000000000000E+35
        DRYMUL     PROXANAL    MOISTURE  1.000000000000000E+35  FC        1.000000000000000E+35  VM        1.000000000000000E+35
                               ASH       1.000000000000000E+35
                   ULTANAL     ASH       1.000000000000000E+35  CARBON    1.000000000000000E+35  HYDROGEN  1.000000000000000E+35
                               NITROGEN  1.000000000000000E+35  CHLORINE  1.000000000000000E+35  SULFUR    1.000000000000000E+35
                               OXYGEN    1.000000000000000E+35
                   SULFANAL    PYRITIC   1.000000000000000E+35  SULFATE   1.000000000000000E+35  ORGANIC   1.000000000000000E+35
        SUBS ATTR  PSD         FRAC1      0.00000000000000      FRAC2      0.00000000000000      FRAC3      0.00000000000000    
                               FRAC4      0.00000000000000      FRAC5      0.00000000000000      FRAC6      1.00000000000000    
                               FRAC7      0.00000000000000      FRAC8      0.00000000000000      FRAC9      0.00000000000000    
                               FRAC10     0.00000000000000    

 STREAM WASTECHA
        SUBSTREAM MIXED     F =  2.779976808865671E-06  T =   298.246855184130      P =   100000.000000000    
                            H =  -192691687.395596      V =   0.00000000000000      L =   1.00000000000000    
                            ENTROPY =   1131.04144488434      DENSITY =   3159.67419565037      MW =   146.106005705974    
        WATER     2.049443999682620E-06  N2         0.00000000000000      O2         0.00000000000000    
        CHX       7.305328091830509E-07  CO         0.00000000000000      CO2        0.00000000000000    
        CH4        0.00000000000000      H2         0.00000000000000      C2H4       0.00000000000000    
        C2H6       0.00000000000000      ACETICAC   0.00000000000000      PHENOL     0.00000000000000    
        GUAIACOL   0.00000000000000      ACETOL     0.00000000000000      C          0.00000000000000    
        SO2        0.00000000000000      HCL        0.00000000000000      S          0.00000000000000    
        SUBSTREAM NCPSD     F =  3.159716560000007E-03  T =   298.246855184130      P =   100000.000000000    
                            H =  -491908.464953825      V =   0.00000000000000      L =   0.00000000000000    
                            ENTROPY =  1.000000000000000E+35  DENSITY =   1571.71645134441      MW =   1.00000000000000    
                            S =   1.00000000000000    
        MULBERRY   0.00000000000000      CHAR      3.159716560000007E-03  ASH        0.00000000000000    
        DRYMUL     0.00000000000000    
        MULBERRY   PROXANAL    MOISTURE  1.000000000000000E+35  FC        1.000000000000000E+35  VM        1.000000000000000E+35
                               ASH       1.000000000000000E+35
                   ULTANAL     ASH       1.000000000000000E+35  CARBON    1.000000000000000E+35  HYDROGEN  1.000000000000000E+35
                               NITROGEN  1.000000000000000E+35  CHLORINE  1.000000000000000E+35  SULFUR    1.000000000000000E+35
                               OXYGEN    1.000000000000000E+35
                   SULFANAL    PYRITIC   1.000000000000000E+35  SULFATE   1.000000000000000E+35  ORGANIC   1.000000000000000E+35
        CHAR       PROXANAL    MOISTURE   2.00000000000000      FC         75.0000000000000      VM         15.0000000000000    
                               ASH        8.00000000000000    
                   ULTANAL     ASH        8.00000000000000      CARBON     78.0000000000000      HYDROGEN   2.50000000000000    
                               NITROGEN  0.500000000000000      CHLORINE   0.00000000000000      SULFUR    2.000000000000000E-02
                               OXYGEN     10.9800000000000    
                   SULFANAL    PYRITIC    0.00000000000000      SULFATE    0.00000000000000      ORGANIC    2.00000000000000    
        ASH        PROXANAL    MOISTURE  1.000000000000000E+35  FC        1.000000000000000E+35  VM        1.000000000000000E+35
                               ASH       1.000000000000000E+35
                   ULTANAL     ASH       1.000000000000000E+35  CARBON    1.000000000000000E+35  HYDROGEN  1.000000000000000E+35
                               NITROGEN  1.000000000000000E+35  CHLORINE  1.000000000000000E+35  SULFUR    1.000000000000000E+35
                               OXYGEN    1.000000000000000E+35
                   SULFANAL    PYRITIC   1.000000000000000E+35  SULFATE   1.000000000000000E+35  ORGANIC   1.000000000000000E+35
        DRYMUL     PROXANAL    MOISTURE  1.000000000000000E+35  FC        1.000000000000000E+35  VM        1.000000000000000E+35
                               ASH       1.000000000000000E+35
                   ULTANAL     ASH       1.000000000000000E+35  CARBON    1.000000000000000E+35  HYDROGEN  1.000000000000000E+35
                               NITROGEN  1.000000000000000E+35  CHLORINE  1.000000000000000E+35  SULFUR    1.000000000000000E+35
                               OXYGEN    1.000000000000000E+35
                   SULFANAL    PYRITIC   1.000000000000000E+35  SULFATE   1.000000000000000E+35  ORGANIC   1.000000000000000E+35
        SUBS ATTR  PSD         FRAC1      0.00000000000000      FRAC2      0.00000000000000      FRAC3      0.00000000000000    
                               FRAC4      0.00000000000000      FRAC5      0.00000000000000      FRAC6      1.00000000000000    
                               FRAC7      0.00000000000000      FRAC8      0.00000000000000      FRAC9      0.00000000000000    
                               FRAC10     0.00000000000000    

 STREAM EXHAUST2
        SUBSTREAM MIXED     F =  3.303433120596798E-04  T =   2994.15132697880      P =   100000.000000000    
                            H =   386308240.864813      V =  0.622795267836068      L =  0.377204732163932    
                            ENTROPY =   8421.55451881977      DENSITY =  0.119489836460765      MW =   18.5260530163927    
        WATER     1.208536747353216E-05  N2        7.611289686750271E-05  O2         0.00000000000000    
        CHX       6.080891306607813E-07  CO        2.063533175367480E-05  CO2       1.721824635490516E-05
        CH4        0.00000000000000      H2        3.261752275571425E-05  C2H4       0.00000000000000    
        C2H6       0.00000000000000      ACETICAC   0.00000000000000      PHENOL     0.00000000000000    
        GUAIACOL   0.00000000000000      ACETOL     0.00000000000000      C         1.708012627850324E-04
        SO2       3.303162783561628E-09  HCL       2.448873570445392E-07  S         1.640441882936176E-08
        SUBSTREAM NCPSD     F =  2.237079324480005E-04  T =   2994.15132697880      P =   100000.000000000    
                            H =   3397842.80304183      V =   0.00000000000000      L =   0.00000000000000    
                            ENTROPY =  1.000000000000000E+35  DENSITY =   3486.88408551234      MW =   1.00000000000000    
                            S =   1.00000000000000    
        MULBERRY   0.00000000000000      CHAR       0.00000000000000      ASH       2.237079324480005E-04
        DRYMUL     0.00000000000000    
        MULBERRY   PROXANAL    MOISTURE  1.000000000000000E+35  FC        1.000000000000000E+35  VM        1.000000000000000E+35
                               ASH       1.000000000000000E+35
                   ULTANAL     ASH       1.000000000000000E+35  CARBON    1.000000000000000E+35  HYDROGEN  1.000000000000000E+35
                               NITROGEN  1.000000000000000E+35  CHLORINE  1.000000000000000E+35  SULFUR    1.000000000000000E+35
                               OXYGEN    1.000000000000000E+35
                   SULFANAL    PYRITIC   1.000000000000000E+35  SULFATE   1.000000000000000E+35  ORGANIC   1.000000000000000E+35
        CHAR       PROXANAL    MOISTURE  1.000000000000000E+35  FC        1.000000000000000E+35  VM        1.000000000000000E+35
                               ASH       1.000000000000000E+35
                   ULTANAL     ASH       1.000000000000000E+35  CARBON    1.000000000000000E+35  HYDROGEN  1.000000000000000E+35
                               NITROGEN  1.000000000000000E+35  CHLORINE  1.000000000000000E+35  SULFUR    1.000000000000000E+35
                               OXYGEN    1.000000000000000E+35
                   SULFANAL    PYRITIC   1.000000000000000E+35  SULFATE   1.000000000000000E+35  ORGANIC   1.000000000000000E+35
        ASH        PROXANAL    MOISTURE   0.00000000000000      FC         0.00000000000000      VM         0.00000000000000    
                               ASH        100.000000000000    
                   ULTANAL     ASH        100.000000000000      CARBON     0.00000000000000      HYDROGEN   0.00000000000000    
                               NITROGEN   0.00000000000000      CHLORINE   0.00000000000000      SULFUR     0.00000000000000    
                               OXYGEN     0.00000000000000    
                   SULFANAL    PYRITIC    0.00000000000000      SULFATE    0.00000000000000      ORGANIC    0.00000000000000    
        DRYMUL     PROXANAL    MOISTURE  1.000000000000000E+35  FC        1.000000000000000E+35  VM        1.000000000000000E+35
                               ASH       1.000000000000000E+35
                   ULTANAL     ASH       1.000000000000000E+35  CARBON    1.000000000000000E+35  HYDROGEN  1.000000000000000E+35
                               NITROGEN  1.000000000000000E+35  CHLORINE  1.000000000000000E+35  SULFUR    1.000000000000000E+35
                               OXYGEN    1.000000000000000E+35
                   SULFANAL    PYRITIC   1.000000000000000E+35  SULFATE   1.000000000000000E+35  ORGANIC   1.000000000000000E+35
        SUBS ATTR  PSD         FRAC1      0.00000000000000      FRAC2      0.00000000000000      FRAC3      0.00000000000000    
                               FRAC4      0.00000000000000      FRAC5      0.00000000000000      FRAC6      1.00000000000000    
                               FRAC7      0.00000000000000      FRAC8      0.00000000000000      FRAC9      0.00000000000000    
                               FRAC10     0.00000000000000    

 STREAM COLDFLU2
        SUBSTREAM MIXED     F =  3.303433120596798E-04  T =   2709.21178458770      P =   100000.000000000    
                            H =   366784590.532807      V =  0.501239503470320      L =  0.498760496529680    
                            ENTROPY =   8337.60522923707      DENSITY =  0.164080841015526      MW =   18.5260530163927    
        WATER     1.208536747353216E-05  N2        7.611289686750271E-05  O2         0.00000000000000    
        CHX       6.080891306607813E-07  CO        2.063533175367480E-05  CO2       1.721824635490516E-05
        CH4        0.00000000000000      H2        3.261752275571425E-05  C2H4       0.00000000000000    
        C2H6       0.00000000000000      ACETICAC   0.00000000000000      PHENOL     0.00000000000000    
        GUAIACOL   0.00000000000000      ACETOL     0.00000000000000      C         1.708012627850324E-04
        SO2       3.303162783561628E-09  HCL       2.448873570445392E-07  S         1.640441882936176E-08
        SUBSTREAM NCPSD     F =  2.237079324480005E-04  T =   2709.21178458770      P =   100000.000000000    
                            H =   2752444.64454955      V =   0.00000000000000      L =   0.00000000000000    
                            ENTROPY =  1.000000000000000E+35  DENSITY =   3486.88408551234      MW =   1.00000000000000    
                            S =   1.00000000000000    
        MULBERRY   0.00000000000000      CHAR       0.00000000000000      ASH       2.237079324480005E-04
        DRYMUL     0.00000000000000    
        MULBERRY   PROXANAL    MOISTURE  1.000000000000000E+35  FC        1.000000000000000E+35  VM        1.000000000000000E+35
                               ASH       1.000000000000000E+35
                   ULTANAL     ASH       1.000000000000000E+35  CARBON    1.000000000000000E+35  HYDROGEN  1.000000000000000E+35
                               NITROGEN  1.000000000000000E+35  CHLORINE  1.000000000000000E+35  SULFUR    1.000000000000000E+35
                               OXYGEN    1.000000000000000E+35
                   SULFANAL    PYRITIC   1.000000000000000E+35  SULFATE   1.000000000000000E+35  ORGANIC   1.000000000000000E+35
        CHAR       PROXANAL    MOISTURE  1.000000000000000E+35  FC        1.000000000000000E+35  VM        1.000000000000000E+35
                               ASH       1.000000000000000E+35
                   ULTANAL     ASH       1.000000000000000E+35  CARBON    1.000000000000000E+35  HYDROGEN  1.000000000000000E+35
                               NITROGEN  1.000000000000000E+35  CHLORINE  1.000000000000000E+35  SULFUR    1.000000000000000E+35
                               OXYGEN    1.000000000000000E+35
                   SULFANAL    PYRITIC   1.000000000000000E+35  SULFATE   1.000000000000000E+35  ORGANIC   1.000000000000000E+35
        ASH        PROXANAL    MOISTURE   0.00000000000000      FC         0.00000000000000      VM         0.00000000000000    
                               ASH        100.000000000000    
                   ULTANAL     ASH        100.000000000000      CARBON     0.00000000000000      HYDROGEN   0.00000000000000    
                               NITROGEN   0.00000000000000      CHLORINE   0.00000000000000      SULFUR     0.00000000000000    
                               OXYGEN     0.00000000000000    
                   SULFANAL    PYRITIC    0.00000000000000      SULFATE    0.00000000000000      ORGANIC    0.00000000000000    
        DRYMUL     PROXANAL    MOISTURE  1.000000000000000E+35  FC        1.000000000000000E+35  VM        1.000000000000000E+35
                               ASH       1.000000000000000E+35
                   ULTANAL     ASH       1.000000000000000E+35  CARBON    1.000000000000000E+35  HYDROGEN  1.000000000000000E+35
                               NITROGEN  1.000000000000000E+35  CHLORINE  1.000000000000000E+35  SULFUR    1.000000000000000E+35
                               OXYGEN    1.000000000000000E+35
                   SULFANAL    PYRITIC   1.000000000000000E+35  SULFATE   1.000000000000000E+35  ORGANIC   1.000000000000000E+35
        SUBS ATTR  PSD         FRAC1      0.00000000000000      FRAC2      0.00000000000000      FRAC3      0.00000000000000    
                               FRAC4      0.00000000000000      FRAC5      0.00000000000000      FRAC6      1.00000000000000    
                               FRAC7      0.00000000000000      FRAC8      0.00000000000000      FRAC9      0.00000000000000    
                               FRAC10     0.00000000000000    

 STREAM HOTPYFED
        SUBSTREAM MIXED     F =   0.00000000000000      T =   773.150000000000      P =   100000.000000000    
                            H =  1.000000000000000E+35  V =  1.000000000000000E+35  L =  1.000000000000000E+35
                            ENTROPY =  1.000000000000000E+35  DENSITY =  1.000000000000000E+35  MW =  1.000000000000000E+35
        WATER      0.00000000000000      N2         0.00000000000000      O2         0.00000000000000    
        CHX        0.00000000000000      CO         0.00000000000000      CO2        0.00000000000000    
        CH4        0.00000000000000      H2         0.00000000000000      C2H4       0.00000000000000    
        C2H6       0.00000000000000      ACETICAC   0.00000000000000      PHENOL     0.00000000000000    
        GUAIACOL   0.00000000000000      ACETOL     0.00000000000000      C          0.00000000000000    
        SO2        0.00000000000000      HCL        0.00000000000000      S          0.00000000000000    
        SUBSTREAM NCPSD     F =  9.574898666666687E-03  T =   773.150000000000      P =   100000.000000000    
                            H =  -4591683.85261914      V =   0.00000000000000      L =   0.00000000000000    
                            ENTROPY =  1.000000000000000E+35  DENSITY =   1274.89803255311      MW =   1.00000000000000    
                            S =   1.00000000000000    
        MULBERRY   0.00000000000000      CHAR       0.00000000000000      ASH        0.00000000000000    
        DRYMUL    9.574898666666687E-03
        MULBERRY   PROXANAL    MOISTURE  1.000000000000000E+35  FC        1.000000000000000E+35  VM        1.000000000000000E+35
                               ASH       1.000000000000000E+35
                   ULTANAL     ASH       1.000000000000000E+35  CARBON    1.000000000000000E+35  HYDROGEN  1.000000000000000E+35
                               NITROGEN  1.000000000000000E+35  CHLORINE  1.000000000000000E+35  SULFUR    1.000000000000000E+35
                               OXYGEN    1.000000000000000E+35
                   SULFANAL    PYRITIC   1.000000000000000E+35  SULFATE   1.000000000000000E+35  ORGANIC   1.000000000000000E+35
        CHAR       PROXANAL    MOISTURE  1.000000000000000E+35  FC        1.000000000000000E+35  VM        1.000000000000000E+35
                               ASH       1.000000000000000E+35
                   ULTANAL     ASH       1.000000000000000E+35  CARBON    1.000000000000000E+35  HYDROGEN  1.000000000000000E+35
                               NITROGEN  1.000000000000000E+35  CHLORINE  1.000000000000000E+35  SULFUR    1.000000000000000E+35
                               OXYGEN    1.000000000000000E+35
                   SULFANAL    PYRITIC   1.000000000000000E+35  SULFATE   1.000000000000000E+35  ORGANIC   1.000000000000000E+35
        ASH        PROXANAL    MOISTURE  1.000000000000000E+35  FC        1.000000000000000E+35  VM        1.000000000000000E+35
                               ASH       1.000000000000000E+35
                   ULTANAL     ASH       1.000000000000000E+35  CARBON    1.000000000000000E+35  HYDROGEN  1.000000000000000E+35
                               NITROGEN  1.000000000000000E+35  CHLORINE  1.000000000000000E+35  SULFUR    1.000000000000000E+35
                               OXYGEN    1.000000000000000E+35
                   SULFANAL    PYRITIC   1.000000000000000E+35  SULFATE   1.000000000000000E+35  ORGANIC   1.000000000000000E+35
        DRYMUL     PROXANAL    MOISTURE  0.100000000000000      FC         17.0000000000000      VM         81.5000000000000    
                               ASH        1.50000000000000    
                   ULTANAL     ASH        1.50000000000000      CARBON     48.0000000000000      HYDROGEN   6.00000000000000    
                               NITROGEN  0.200000000000000      CHLORINE   0.00000000000000      SULFUR    2.000000000000000E-02
                               OXYGEN     44.2800000000000    
                   SULFANAL    PYRITIC    0.00000000000000      SULFATE    0.00000000000000      ORGANIC   2.000000000000000E-02
        SUBS ATTR  PSD         FRAC1      0.00000000000000      FRAC2      0.00000000000000      FRAC3      0.00000000000000    
                               FRAC4      0.00000000000000      FRAC5      0.00000000000000      FRAC6      1.00000000000000    
                               FRAC7      0.00000000000000      FRAC8      0.00000000000000      FRAC9      0.00000000000000    
                               FRAC10     0.00000000000000    

 STREAM HOTPROD 
        SUBSTREAM MIXED     F =  2.699406406719055E-04  T =   623.150000000000      P =   100000.000000000    
                            H =  -93644941.7507346      V =   1.00000000000000      L =   0.00000000000000    
                            ENTROPY =   56.2086369420127      DENSITY =  0.458691674570403      MW =   23.7651584833567    
        WATER     5.314876408619064E-06  N2        3.417961162507010E-06  O2         0.00000000000000    
        CHX        0.00000000000000      CO        2.734669598910886E-05  CO2       1.958065885325545E-05
        CH4       2.387344488521098E-05  H2        1.424920927833008E-04  C2H4       0.00000000000000    
        C2H6       0.00000000000000      ACETICAC  7.972098663792754E-06  PHENOL    5.086913921103113E-06
        GUAIACOL  7.713026514618159E-06  ACETOL    2.714287149038928E-05  C          0.00000000000000    
        SO2        0.00000000000000      HCL        0.00000000000000      S          0.00000000000000    
        SUBSTREAM NCPSD     F =  3.159716560000007E-03  T =   623.150000000000      P =   100000.000000000    
                            H =  -25650.0463953728      V =   0.00000000000000      L =   0.00000000000000    
                            ENTROPY =  1.000000000000000E+35  DENSITY =   1571.71645134441      MW =   1.00000000000000    
                            S =   1.00000000000000    
        MULBERRY   0.00000000000000      CHAR      3.159716560000007E-03  ASH        0.00000000000000    
        DRYMUL     0.00000000000000    
        MULBERRY   PROXANAL    MOISTURE  1.000000000000000E+35  FC        1.000000000000000E+35  VM        1.000000000000000E+35
                               ASH       1.000000000000000E+35
                   ULTANAL     ASH       1.000000000000000E+35  CARBON    1.000000000000000E+35  HYDROGEN  1.000000000000000E+35
                               NITROGEN  1.000000000000000E+35  CHLORINE  1.000000000000000E+35  SULFUR    1.000000000000000E+35
                               OXYGEN    1.000000000000000E+35
                   SULFANAL    PYRITIC   1.000000000000000E+35  SULFATE   1.000000000000000E+35  ORGANIC   1.000000000000000E+35
        CHAR       PROXANAL    MOISTURE   2.00000000000000      FC         75.0000000000000      VM         15.0000000000000    
                               ASH        8.00000000000000    
                   ULTANAL     ASH        8.00000000000000      CARBON     78.0000000000000      HYDROGEN   2.50000000000000    
                               NITROGEN  0.500000000000000      CHLORINE   0.00000000000000      SULFUR    2.000000000000000E-02
                               OXYGEN     10.9800000000000    
                   SULFANAL    PYRITIC    0.00000000000000      SULFATE    0.00000000000000      ORGANIC    2.00000000000000    
        ASH        PROXANAL    MOISTURE  1.000000000000000E+35  FC        1.000000000000000E+35  VM        1.000000000000000E+35
                               ASH       1.000000000000000E+35
                   ULTANAL     ASH       1.000000000000000E+35  CARBON    1.000000000000000E+35  HYDROGEN  1.000000000000000E+35
                               NITROGEN  1.000000000000000E+35  CHLORINE  1.000000000000000E+35  SULFUR    1.000000000000000E+35
                               OXYGEN    1.000000000000000E+35
                   SULFANAL    PYRITIC   1.000000000000000E+35  SULFATE   1.000000000000000E+35  ORGANIC   1.000000000000000E+35
        DRYMUL     PROXANAL    MOISTURE  1.000000000000000E+35  FC        1.000000000000000E+35  VM        1.000000000000000E+35
                               ASH       1.000000000000000E+35
                   ULTANAL     ASH       1.000000000000000E+35  CARBON    1.000000000000000E+35  HYDROGEN  1.000000000000000E+35
                               NITROGEN  1.000000000000000E+35  CHLORINE  1.000000000000000E+35  SULFUR    1.000000000000000E+35
                               OXYGEN    1.000000000000000E+35
                   SULFANAL    PYRITIC   1.000000000000000E+35  SULFATE   1.000000000000000E+35  ORGANIC   1.000000000000000E+35
        SUBS ATTR  PSD         FRAC1      0.00000000000000      FRAC2      0.00000000000000      FRAC3      0.00000000000000    
                               FRAC4      0.00000000000000      FRAC5      0.00000000000000      FRAC6      1.00000000000000    
                               FRAC7      0.00000000000000      FRAC8      0.00000000000000      FRAC9      0.00000000000000    
                               FRAC10     0.00000000000000    


*** INPUT SPECIFICATION MESSAGES ***

 CHANGES WERE MADE TO STREAM       AIR2     12/18/2025   01:01:07:99 
 STREAM AIR2
     SUBSTREAM MIXED TEMP=25. PRES=1. MASS-FLOW=20.
     MOLE-FRAC N2 0.781 / O2 0.21 / CO2 0.008

 DISABLE      IS  NEW 12/18/2025   01:01:07:99 
 DISABLE
     STREAM AIR1

 PDF updated                                                                      TIME =     78.44
 THIS COPY OF ASPEN PLUS LICENSED TO QUEEN MARY UNIVERSITY OF        
 
 


Calculations begin                                                              time     79.09


      ENTHALPY CALCULATION FOR INLET STREAM AIR2 OF BLOCK BURNER3                 TIME =     79.09
      SUBSTREAM MIXED   
      KODE = 2  NTRIAL =   1  T = 298.1500  P =  100000.      V =  1.00000      Q =  0.00000    

      UOS BLOCK BURNER3  MODEL: RSTOIC                                            TIME =     79.09

  *   WARNING WHILE EXECUTING UNIT OPERATIONS BLOCK: "BURNER3" (MODEL:          
      "RSTOIC")                                                (URE07.3)        
      COMPONENT "O2" IN SUBSTREAM "MIXED" HAS ZERO                              
      FLOWRATE IN THE OUTLET STREAM. FRACTIONAL CONVERSION                      
      HAS BEEN MODIFIED BY A FACTOR OF "0.2768593"                              

  *   WARNING WHILE EXECUTING UNIT OPERATIONS BLOCK: "BURNER3" (MODEL:          
      "RSTOIC")                                                (URE07.3)        
      COMPONENT "O2" IN SUBSTREAM "MIXED" HAS ZERO                              
      FLOWRATE IN THE OUTLET STREAM. FRACTIONAL CONVERSION                      
      HAS BEEN MODIFIED BY A FACTOR OF "0.2768593"                              
      KODE = 1  NTRIAL =   1  T =  3258.92      P =  100000.      V = 0.997793      Q =  0.00000    

      CONVERGENCE BLOCK $OLVER01  METHOD: WEGSTEIN                                TIME =     79.10
      ITER   0 For Tear Streams: EXHAUST1  EXHAUST2

      UOS BLOCK PYHEAT   MODEL: HEATX                                             TIME =     79.10
[...]
        CHX       5.282780125518416E-07  CO        3.408583340215439E-05  CO2       2.870868964392027E-05
        CH4        0.00000000000000      H2        2.833650402043687E-05  C2H4       0.00000000000000    
        C2H6       0.00000000000000      ACETICAC   0.00000000000000      PHENOL     0.00000000000000    
        GUAIACOL   0.00000000000000      ACETOL     0.00000000000000      C         1.483837600375664E-04
        SO2       5.456227100425836E-09  HCL       4.045095932624185E-07  S         1.425135451249755E-08
        SUBSTREAM NCPSD     F =  2.237079324480005E-04  T =   3042.46338932467      P =   100000.000000000    
                            H =   3511989.88066925      V =   0.00000000000000      L =   0.00000000000000    
                            ENTROPY =  1.000000000000000E+35  DENSITY =   3486.88408551234      MW =   1.00000000000000    
                            S =   1.00000000000000    
        MULBERRY   0.00000000000000      CHAR       0.00000000000000      ASH       2.237079324480005E-04
        DRYMUL     0.00000000000000    
        MULBERRY   PROXANAL    MOISTURE  1.000000000000000E+35  FC        1.000000000000000E+35  VM        1.000000000000000E+35
                               ASH       1.000000000000000E+35
                   ULTANAL     ASH       1.000000000000000E+35  CARBON    1.000000000000000E+35  HYDROGEN  1.000000000000000E+35
                               NITROGEN  1.000000000000000E+35  CHLORINE  1.000000000000000E+35  SULFUR    1.000000000000000E+35
                               OXYGEN    1.000000000000000E+35
                   SULFANAL    PYRITIC   1.000000000000000E+35  SULFATE   1.000000000000000E+35  ORGANIC   1.000000000000000E+35
        CHAR       PROXANAL    MOISTURE  1.000000000000000E+35  FC        1.000000000000000E+35  VM        1.000000000000000E+35
                               ASH       1.000000000000000E+35
                   ULTANAL     ASH       1.000000000000000E+35  CARBON    1.000000000000000E+35  HYDROGEN  1.000000000000000E+35
                               NITROGEN  1.000000000000000E+35  CHLORINE  1.000000000000000E+35  SULFUR    1.000000000000000E+35
                               OXYGEN    1.000000000000000E+35
                   SULFANAL    PYRITIC   1.000000000000000E+35  SULFATE   1.000000000000000E+35  ORGANIC   1.000000000000000E+35
        ASH        PROXANAL    MOISTURE   0.00000000000000      FC         0.00000000000000      VM         0.00000000000000    
                               ASH        100.000000000000    
                   ULTANAL     ASH        100.000000000000      CARBON     0.00000000000000      HYDROGEN   0.00000000000000    
                               NITROGEN   0.00000000000000      CHLORINE   0.00000000000000      SULFUR     0.00000000000000    
                               OXYGEN     0.00000000000000    
                   SULFANAL    PYRITIC    0.00000000000000      SULFATE    0.00000000000000      ORGANIC    0.00000000000000    
        DRYMUL     PROXANAL    MOISTURE  1.000000000000000E+35  FC        1.000000000000000E+35  VM        1.000000000000000E+35
                               ASH       1.000000000000000E+35
                   ULTANAL     ASH       1.000000000000000E+35  CARBON    1.000000000000000E+35  HYDROGEN  1.000000000000000E+35
                               NITROGEN  1.000000000000000E+35  CHLORINE  1.000000000000000E+35  SULFUR    1.000000000000000E+35
                               OXYGEN    1.000000000000000E+35
                   SULFANAL    PYRITIC   1.000000000000000E+35  SULFATE   1.000000000000000E+35  ORGANIC   1.000000000000000E+35
        SUBS ATTR  PSD         FRAC1      0.00000000000000      FRAC2      0.00000000000000      FRAC3      0.00000000000000    
                               FRAC4      0.00000000000000      FRAC5      0.00000000000000      FRAC6      1.00000000000000    
                               FRAC7      0.00000000000000      FRAC8      0.00000000000000      FRAC9      0.00000000000000    
                               FRAC10     0.00000000000000    

 STREAM HOTPYFED
        SUBSTREAM MIXED     F =   0.00000000000000      T =   773.150000000000      P =   100000.000000000    
                            H =  1.000000000000000E+35  V =  1.000000000000000E+35  L =  1.000000000000000E+35
                            ENTROPY =  1.000000000000000E+35  DENSITY =  1.000000000000000E+35  MW =  1.000000000000000E+35
        WATER      0.00000000000000      N2         0.00000000000000      O2         0.00000000000000    
        CHX        0.00000000000000      CO         0.00000000000000      CO2        0.00000000000000    
        CH4        0.00000000000000      H2         0.00000000000000      C2H4       0.00000000000000    
        C2H6       0.00000000000000      ACETICAC   0.00000000000000      PHENOL     0.00000000000000    
        GUAIACOL   0.00000000000000      ACETOL     0.00000000000000      C          0.00000000000000    
        SO2        0.00000000000000      HCL        0.00000000000000      S          0.00000000000000    
        SUBSTREAM NCPSD     F =  9.574898666666687E-03  T =   773.150000000000      P =   100000.000000000    
                            H =  -4591683.85261914      V =   0.00000000000000      L =   0.00000000000000    
                            ENTROPY =  1.000000000000000E+35  DENSITY =   1274.89803255311      MW =   1.00000000000000    
                            S =   1.00000000000000    
        MULBERRY   0.00000000000000      CHAR       0.00000000000000      ASH        0.00000000000000    
        DRYMUL    9.574898666666687E-03
        MULBERRY   PROXANAL    MOISTURE  1.000000000000000E+35  FC        1.000000000000000E+35  VM        1.000000000000000E+35
                               ASH       1.000000000000000E+35
                   ULTANAL     ASH       1.000000000000000E+35  CARBON    1.000000000000000E+35  HYDROGEN  1.000000000000000E+35
                               NITROGEN  1.000000000000000E+35  CHLORINE  1.000000000000000E+35  SULFUR    1.000000000000000E+35
                               OXYGEN    1.000000000000000E+35
                   SULFANAL    PYRITIC   1.000000000000000E+35  SULFATE   1.000000000000000E+35  ORGANIC   1.000000000000000E+35
        CHAR       PROXANAL    MOISTURE  1.000000000000000E+35  FC        1.000000000000000E+35  VM        1.000000000000000E+35
                               ASH       1.000000000000000E+35
                   ULTANAL     ASH       1.000000000000000E+35  CARBON    1.000000000000000E+35  HYDROGEN  1.000000000000000E+35
                               NITROGEN  1.000000000000000E+35  CHLORINE  1.000000000000000E+35  SULFUR    1.000000000000000E+35
                               OXYGEN    1.000000000000000E+35
                   SULFANAL    PYRITIC   1.000000000000000E+35  SULFATE   1.000000000000000E+35  ORGANIC   1.000000000000000E+35
        ASH        PROXANAL    MOISTURE  1.000000000000000E+35  FC        1.000000000000000E+35  VM        1.000000000000000E+35
                               ASH       1.000000000000000E+35
                   ULTANAL     ASH       1.000000000000000E+35  CARBON    1.000000000000000E+35  HYDROGEN  1.000000000000000E+35
                               NITROGEN  1.000000000000000E+35  CHLORINE  1.000000000000000E+35  SULFUR    1.000000000000000E+35
                               OXYGEN    1.000000000000000E+35
                   SULFANAL    PYRITIC   1.000000000000000E+35  SULFATE   1.000000000000000E+35  ORGANIC   1.000000000000000E+35
        DRYMUL     PROXANAL    MOISTURE  0.100000000000000      FC         17.0000000000000      VM         81.5000000000000    
                               ASH        1.50000000000000    
                   ULTANAL     ASH        1.50000000000000      CARBON     48.0000000000000      HYDROGEN   6.00000000000000    
                               NITROGEN  0.200000000000000      CHLORINE   0.00000000000000      SULFUR    2.000000000000000E-02
                               OXYGEN     44.2800000000000    
                   SULFANAL    PYRITIC    0.00000000000000      SULFATE    0.00000000000000      ORGANIC   2.000000000000000E-02
        SUBS ATTR  PSD         FRAC1      0.00000000000000      FRAC2      0.00000000000000      FRAC3      0.00000000000000    
                               FRAC4      0.00000000000000      FRAC5      0.00000000000000      FRAC6      1.00000000000000    
                               FRAC7      0.00000000000000      FRAC8      0.00000000000000      FRAC9      0.00000000000000    
                               FRAC10     0.00000000000000    

 STREAM HOTPROD 
        SUBSTREAM MIXED     F =  2.699406406719055E-04  T =   623.150000000000      P =   100000.000000000    
                            H =  -93644941.7507346      V =   1.00000000000000      L =   0.00000000000000    
                            ENTROPY =   56.2086369420127      DENSITY =  0.458691674570403      MW =   23.7651584833567    
        WATER     5.314876408619064E-06  N2        3.417961162507010E-06  O2         0.00000000000000    
        CHX        0.00000000000000      CO        2.734669598910886E-05  CO2       1.958065885325545E-05
        CH4       2.387344488521098E-05  H2        1.424920927833008E-04  C2H4       0.00000000000000    
        C2H6       0.00000000000000      ACETICAC  7.972098663792754E-06  PHENOL    5.086913921103113E-06
        GUAIACOL  7.713026514618159E-06  ACETOL    2.714287149038928E-05  C          0.00000000000000    
        SO2        0.00000000000000      HCL        0.00000000000000      S          0.00000000000000    
        SUBSTREAM NCPSD     F =  3.159716560000007E-03  T =   623.150000000000      P =   100000.000000000    
                            H =  -25650.0463953728      V =   0.00000000000000      L =   0.00000000000000    
                            ENTROPY =  1.000000000000000E+35  DENSITY =   1571.71645134441      MW =   1.00000000000000    
                            S =   1.00000000000000    
        MULBERRY   0.00000000000000      CHAR      3.159716560000007E-03  ASH        0.00000000000000    
        DRYMUL     0.00000000000000    
        MULBERRY   PROXANAL    MOISTURE  1.000000000000000E+35  FC        1.000000000000000E+35  VM        1.000000000000000E+35
                               ASH       1.000000000000000E+35
                   ULTANAL     ASH       1.000000000000000E+35  CARBON    1.000000000000000E+35  HYDROGEN  1.000000000000000E+35
                               NITROGEN  1.000000000000000E+35  CHLORINE  1.000000000000000E+35  SULFUR    1.000000000000000E+35
                               OXYGEN    1.000000000000000E+35
                   SULFANAL    PYRITIC   1.000000000000000E+35  SULFATE   1.000000000000000E+35  ORGANIC   1.000000000000000E+35
        CHAR       PROXANAL    MOISTURE   2.00000000000000      FC         75.0000000000000      VM         15.0000000000000    
                               ASH        8.00000000000000    
                   ULTANAL     ASH        8.00000000000000      CARBON     78.0000000000000      HYDROGEN   2.50000000000000    
                               NITROGEN  0.500000000000000      CHLORINE   0.00000000000000      SULFUR    2.000000000000000E-02
                               OXYGEN     10.9800000000000    
                   SULFANAL    PYRITIC    0.00000000000000      SULFATE    0.00000000000000      ORGANIC    2.00000000000000    
        ASH        PROXANAL    MOISTURE  1.000000000000000E+35  FC        1.000000000000000E+35  VM        1.000000000000000E+35
                               ASH       1.000000000000000E+35
                   ULTANAL     ASH       1.000000000000000E+35  CARBON    1.000000000000000E+35  HYDROGEN  1.000000000000000E+35
                               NITROGEN  1.000000000000000E+35  CHLORINE  1.000000000000000E+35  SULFUR    1.000000000000000E+35
                               OXYGEN    1.000000000000000E+35
                   SULFANAL    PYRITIC   1.000000000000000E+35  SULFATE   1.000000000000000E+35  ORGANIC   1.000000000000000E+35
        DRYMUL     PROXANAL    MOISTURE  1.000000000000000E+35  FC        1.000000000000000E+35  VM        1.000000000000000E+35
                               ASH       1.000000000000000E+35
                   ULTANAL     ASH       1.000000000000000E+35  CARBON    1.000000000000000E+35  HYDROGEN  1.000000000000000E+35
                               NITROGEN  1.000000000000000E+35  CHLORINE  1.000000000000000E+35  SULFUR    1.000000000000000E+35
                               OXYGEN    1.000000000000000E+35
                   SULFANAL    PYRITIC   1.000000000000000E+35  SULFATE   1.000000000000000E+35  ORGANIC   1.000000000000000E+35
        SUBS ATTR  PSD         FRAC1      0.00000000000000      FRAC2      0.00000000000000      FRAC3      0.00000000000000    
                               FRAC4      0.00000000000000      FRAC5      0.00000000000000      FRAC6      1.00000000000000    
                               FRAC7      0.00000000000000      FRAC8      0.00000000000000      FRAC9      0.00000000000000    
                               FRAC10     0.00000000000000    


*** INPUT SPECIFICATION MESSAGES ***

 CHANGES WERE MADE TO STREAM       AIR2     12/18/2025   01:02:17:99 
 STREAM AIR2
     SUBSTREAM MIXED TEMP=25. PRES=1. MASS-FLOW=100.
     MOLE-FRAC N2 0.781 / O2 0.21 / CO2 0.008

 BLOCK        BURNER3  IS GENERATED BECAUSE OF OTHER CHANGES 12/18/2025   01:02:17:99 
 BLOCK BURNER3 RSTOIC
     PARAM PRES=1. DUTY=0. COMBUSTION=YES
     STOIC 1 MIXED C -1. / O2 -1. / CO2 1.
     STOIC 2 MIXED C -2. / O2 -1. / CO 2.
     STOIC 3 MIXED H2 -2. / O2 -1. / WATER 2.
     STOIC 4 MIXED S -1. / O2 -1. / SO2 1.
     STOIC 5 MIXED CHX -1. / O2 -29. / CO2 22. / WATER  &
         14. / HCL 2. / N2 5.
     CONV 1 MIXED C 0.4
     CONV 2 MIXED C 0.6
     CONV 3 MIXED H2 1.
     CONV 4 MIXED S 1.
     CONV 5 MIXED CHX 1.

 DISABLE      IS  NEW 12/18/2025   01:02:17:99 
 DISABLE
     STREAM AIR1

 PDF updated                                                                      TIME =    148.77
 THIS COPY OF ASPEN PLUS LICENSED TO QUEEN MARY UNIVERSITY OF        
 
 


Calculations begin                                                              time    149.35


      ENTHALPY CALCULATION FOR INLET STREAM AIR2 OF BLOCK BURNER3                 TIME =    149.35
      SUBSTREAM MIXED   
      KODE = 2  NTRIAL =   1  T = 298.1500  P =  100000.      V =  1.00000      Q =  0.00000    

      UOS BLOCK BURNER3  MODEL: RSTOIC                                            TIME =    149.35

  *   WARNING WHILE EXECUTING UNIT OPERATIONS BLOCK: "BURNER3" (MODEL:          
      "RSTOIC")                                                (URE07.3)        
      COMPONENT "C" IN SUBSTREAM "MIXED" HAS ZERO                               
      FLOWRATE IN THE OUTLET STREAM. FRACTIONAL CONVERSION                      
      HAS BEEN MODIFIED BY A FACTOR OF "1.000000"                               
      NO. TEMP ITER =    7     TEMP =  4951.15    
      KODE = 1  NTRIAL =   2  T =  4951.15      P =  100000.      V =  1.00000      Q =  0.00000    

      CONVERGENCE BLOCK $OLVER01  METHOD: WEGSTEIN                                TIME =    149.35
      ITER   0 For Tear Streams: EXHAUST1  EXHAUST2

      UOS BLOCK PYHEAT   MODEL: HEATX                                             TIME =    149.35
      SPECIFICATION: COLD OUTLET TEMP      773.15    
      FLOW TYPE:     COUNTERCURRENT  
      HOT:  TIN= 4951.15  PIN=0.10000E+06   TOUT= 4802.98  POUT=0.10000E+06
      COLD: TIN=  523.15  PIN=0.10000E+06   TOUT=  773.15  POUT=0.10000E+06
                              DUTY= 6593.9    

      UOS BLOCK PYROLYZE MODEL: RYIELD                                            TIME =    149.35

  *   WARNING WHILE EXECUTING UNIT OPERATIONS BLOCK: "PYROLYZE" (MODEL:         
      "RYIELD")                                                (BALATM.1)       
      THE FOLLOWING ELEMENTS ARE NOT IN ATOM BALANCE:                           
      H     N     C     S                                                       
      KODE = 2  NTRIAL =   3  T =  623.150      P =  100000.      V =  1.00000      Q =  18605.3    

      UOS BLOCK CHARSEP  MODEL: SEP                                               TIME =    149.35
      ---FLASH OUTLET STREAM CHAR    :
      KODE =    2 T =  623.150     P =  100000.     Q =  0.00000     HNCS = -25650.0    
      ---FLASH OUTLET STREAM VAPORS  :
      KODE = 2  NTRIAL =   3  T =  623.150      P =  100000.      V =  1.00000      Q =  0.00000    

      UOS BLOCK FBSEP    MODEL: SEP                                               TIME =    149.35
      ---FLASH FEED STREAM TO CALCULATE TEMPERATURE:
      NO. TEMP ITER =    5     TEMP =  298.247    
      KODE = 1  NTRIAL =   2  T =  298.247      P =  100000.      V =  0.00000      Q =  0.00000    
      ---FLASH OUTLET STREAM CLEANH2O:
      KODE = 2  NTRIAL =   1  T =  298.247      P =  100000.      V =  0.00000      Q =  0.00000    
      ---FLASH OUTLET STREAM WASTECHA:
      KODE = 2  NTRIAL =   3  T =  298.247      P =  100000.      V =  0.00000      Q =  0.00000    

      UOS BLOCK CHXSEP   MODEL: SEP                                               TIME =    149.35
      ---FLASH OUTLET STREAM SPNTCHAR:
      KODE =    2 T =  298.247     P =  100000.     Q =  0.00000     HNCS = -491908.    
      ---FLASH OUTLET STREAM CHXRECO :
      KODE = 2  NTRIAL =   3  T =  298.247      P =  100000.      V =  0.00000      Q =  0.00000    

      UOS BLOCK DECOMP   MODEL: RYIELD                                            TIME =    149.36

  *   WARNING WHILE EXECUTING UNIT OPERATIONS BLOCK: "DECOMP" (MODEL: "RYIELD") 
                                                               (BALATM.1)       
      THE FOLLOWING ELEMENTS ARE NOT IN ATOM BALANCE:                           
      H     N     C     S                                                       
      KODE = 2  NTRIAL =   1  T =  298.150      P =  100000.      V = 0.195964      Q =  130766.    

      UOS BLOCK BURNER3  MODEL: RSTOIC                                            TIME =    149.36

  *   WARNING WHILE EXECUTING UNIT OPERATIONS BLOCK: "BURNER3" (MODEL:          
      "RSTOIC")                                                (URE07.3)        
      COMPONENT "C" IN SUBSTREAM "MIXED" HAS ZERO                               
      FLOWRATE IN THE OUTLET STREAM. FRACTIONAL CONVERSION                      
      HAS BEEN MODIFIED BY A FACTOR OF "1.000000"                               
      NO. TEMP ITER =    7     TEMP =  4951.15    
      KODE = 1  NTRIAL =   2  T =  4951.15      P =  100000.      V =  1.00000      Q =  0.00000    

      UOS BLOCK CONDENSE MODEL: FLASH2                                            TIME =    149.36
      KODE = 2  NTRIAL =   1  T =  298.150      P =  100000.      V = 0.809325      Q = -6788.95    

      UOS BLOCK BURNER1  MODEL: RSTOIC                                            TIME =    149.36
      NO. TEMP ITER =    6     TEMP =  1888.48    
      KODE = 1  NTRIAL =   2  T =  1888.48      P = 1.000000E+06  V =  1.00000      Q =  0.00000    

      CONVERGENCE BLOCK $OLVER01  METHOD: WEGSTEIN                                TIME =    149.36
      ITER   1 For Tear Streams: EXHAUST1  EXHAUST2

  LOOP $OLVER01 ITER    1:     *** CONVERGED *** , MAX ERR/TOL     0.10000E+07    TIME =    149.36

      GENERATING RESULTS FOR UOS BLOCK PYHEAT   MODEL: HEATX                      TIME =    149.36
      SPECIFICATION: COLD OUTLET TEMP      773.15    
      FLOW TYPE:     COUNTERCURRENT  
      HOT:  TIN= 4951.15  PIN=0.10000E+06   TOUT= 4802.98  POUT=0.10000E+06
      COLD: TIN=  523.15  PIN=0.10000E+06   TOUT=  773.15  POUT=0.10000E+06
      AREA=0.18345E-02       DUTY= 6593.9           FT=1.00000
